Circuit: * C:\Program Files (x86)\LTC\LTspiceIV\A6 noise gain.asc

Direct Newton iteration failed to find .op point.  (Use ".option noopiter" to skip.)
Starting Gmin stepping
Gmin = 10
Gmin = 1.07374
Gmin = 0.115292
Gmin = 0.0123794
Gmin = 0.00132923
Gmin = 0.000142725
Gmin = 1.5325e-005
Gmin = 1.6455e-006
Gmin = 1.76685e-007
Gmin = 1.89714e-008
Gmin = 2.03704e-009
Gmin = 2.18725e-010
Gmin = 2.34854e-011
Gmin = 2.52173e-012
Gmin = 2.70769e-013
Gmin = 0
Gmin stepping succeeded in finding the operating point.


Date: Sun Oct 15 14:26:47 2017
Total elapsed time: 0.330 seconds.

tnom = 27
temp = 27
method = modified trap
totiter = 798
traniter = 448
tranpoints = 225
accept = 225
rejected = 0
matrix size = 38
fillins = 18
solver = Normal
Thread vector: 33.3/14.6[4] 6.2/3.0[4] 4.3/3.0[4] 0.4/0.7[1]  2592/500
Matrix Compiler1: 2.80 KB object code size  1.5/0.7/[0.3]
Matrix Compiler2: 4.24 KB object code size  1.2/1.3/[0.8]


