Circuit: * C:\Users\Joakim\Downloads\ba662.asc

Direct Newton iteration failed to find .op point.  (Use ".option noopiter" to skip.)
Starting Gmin stepping
Gmin = 10
Gmin = 1.07374
Gmin = 0.115292
Gmin = 0.0123794
Gmin = 0.00132923
Gmin = 0.000142725
Gmin = 1.5325e-005
Gmin = 1.6455e-006
Gmin = 1.76685e-007
Gmin = 1.89714e-008
Gmin = 2.03704e-009
Gmin = 2.18725e-010
Gmin = 2.34854e-011
Gmin = 2.52173e-012
Gmin = 2.70769e-013
Gmin = 0
Gmin stepping succeeded in finding the operating point.


Date: Tue Oct 24 20:25:20 2017
Total elapsed time: 0.324 seconds.

tnom = 27
temp = 27
method = modified trap
totiter = 1658
traniter = 1167
tranpoints = 541
accept = 372
rejected = 169
matrix size = 39
fillins = 26
solver = Normal
Thread vector: 32.2/20.2[2] 12.1/9.2[2] 7.4/4.9[2] 0.4/0.8[1]  2592/500
Matrix Compiler1: 3.93 KB object code size  1.8/1.0/[0.5]
Matrix Compiler2: 4.21 KB object code size  1.1/1.4/[0.8]


