Circuit: * C:\git\ltspice-projects\Draft1.asc

Direct Newton iteration for .op point succeeded.
Ignoring empty pin current: Ix(u1:1)
Ignoring empty pin current: Ix(u1:2)
Ignoring empty pin current: Ix(u1:1)
Ignoring empty pin current: Ix(u1:2)
.step wip=0
.step wip=0.01
.step wip=0.02
.step wip=0.03
.step wip=0.04
.step wip=0.05
.step wip=0.06
.step wip=0.07
.step wip=0.08
.step wip=0.09
.step wip=0.1
.step wip=0.11
.step wip=0.12
.step wip=0.13
.step wip=0.14
.step wip=0.15
.step wip=0.16
.step wip=0.17
.step wip=0.18
.step wip=0.19
.step wip=0.2
.step wip=0.21
.step wip=0.22
.step wip=0.23
.step wip=0.24
.step wip=0.25
.step wip=0.26
.step wip=0.27
.step wip=0.28
.step wip=0.29
.step wip=0.3
.step wip=0.31
.step wip=0.32
.step wip=0.33
.step wip=0.34
.step wip=0.35
.step wip=0.36
.step wip=0.37
.step wip=0.38
.step wip=0.39
.step wip=0.4
.step wip=0.41
.step wip=0.42
.step wip=0.43
.step wip=0.44
.step wip=0.45
.step wip=0.46
.step wip=0.47
.step wip=0.48
.step wip=0.49
.step wip=0.5
.step wip=0.51
.step wip=0.52
.step wip=0.53
.step wip=0.54
.step wip=0.55
.step wip=0.56
.step wip=0.57
.step wip=0.58
.step wip=0.59
.step wip=0.6
.step wip=0.61
.step wip=0.62
.step wip=0.63
.step wip=0.64
.step wip=0.65
.step wip=0.66
.step wip=0.67
.step wip=0.68
.step wip=0.69
.step wip=0.7
.step wip=0.71
.step wip=0.72
.step wip=0.73
.step wip=0.74
.step wip=0.75
.step wip=0.76
.step wip=0.77
.step wip=0.78
.step wip=0.79
.step wip=0.8
.step wip=0.81
.step wip=0.82
.step wip=0.83
.step wip=0.84
.step wip=0.85
.step wip=0.86
.step wip=0.87
.step wip=0.88
.step wip=0.89
.step wip=0.9
.step wip=0.91
.step wip=0.92
.step wip=0.93
.step wip=0.94
.step wip=0.95
.step wip=0.96
.step wip=0.97
.step wip=0.98
.step wip=0.99
.step wip=1

Date: Tue Jan 15 15:42:08 2019
Total elapsed time: 1.746 seconds.

tnom = 27
temp = 27
method = modified trap
totiter = 53
traniter = 50
tranpoints = 26
accept = 26
rejected = 0
matrix size = 7
fillins = 0
solver = Normal
Matrix Compiler1:      12 opcodes
Matrix Compiler2: 453 bytes object code size

