Circuit: * C:\git\ltspice-projects\expo_converter_test.asc

Direct Newton iteration failed to find .op point.  (Use ".option noopiter" to skip.)
Starting Gmin stepping
Gmin = 10
Gmin = 1.07374
Gmin = 0.115292
Gmin = 0.0123794
Gmin = 0.00132923
Gmin = 0.000142725
Gmin = 1.5325e-005
Gmin = 1.6455e-006
vernier = 0.5
vernier = 0.25
vernier = 0.125
Gmin = 1.45493e-006
vernier = 0.166667
vernier = 0.222222
Gmin = 9.38995e-007
vernier = 0.296296
vernier = 0.395061
Gmin = 4.73271e-007
vernier = 0.526748
Gmin = 1.59204e-007
vernier = 0.702331
vernier = 0.936441
Gmin = 2.83561e-008
vernier = 1
Gmin = 3.16384e-009
Gmin = 3.39714e-010
Gmin = 3.64766e-011
Gmin = 3.91664e-012
Gmin = 4.20546e-013
Gmin = 0
Gmin stepping succeeded in finding the operating point.


Date: Sun Jan 13 20:26:44 2019
Total elapsed time: 0.371 seconds.

tnom = 27
temp = 27
method = trap
totiter = 1268
traniter = 0
tranpoints = 0
accept = 0
rejected = 0
matrix size = 50
fillins = 10
solver = Normal
Thread vector: 32.6/17.7[3] 0.0/0.0[0] 8.0/5.8[3] 0.4/0.9[1]  2592/500
Matrix Compiler1:     166 opcodes  2.3/1.0/[0.4]
Matrix Compiler2: 4.78 KB object code size  1.6/1.2/[0.4]


