Circuit: * C:\Users\Joakim\Documents\Elektronikk og synth\LTspice\expo_converter_test.asc

Direct Newton iteration failed to find .op point.  (Use ".option noopiter" to skip.)
Starting Gmin stepping
Gmin = 10
Gmin = 1.07374
Gmin = 0.115292
Gmin = 0.0123794
Gmin = 0.00132923
Gmin = 0.000142725
Gmin = 1.5325e-005
Gmin = 1.6455e-006
vernier = 0.5
vernier = 0.25
vernier = 0.125
Gmin = 1.29446e-006
vernier = 0.166667
vernier = 0.222222
Gmin = 8.75274e-007
vernier = 0.296296
vernier = 0.148148
Gmin = 5.98902e-007
vernier = 0.197531
vernier = 0.263374
Gmin = 3.67094e-007
vernier = 0.351165
Gmin = 1.71684e-007
vernier = 0.46822
vernier = 0.624294
Gmin = 4.94698e-008
vernier = 0.832392
vernier = 1
Gmin = 7.61968e-009
Gmin = 8.18157e-010
Gmin = 8.78489e-011
Gmin = 9.43271e-012
Gmin = 1.01283e-012
Gmin = 1.08752e-013
Gmin = 0
Gmin stepping succeeded in finding the operating point.


Date: Sat Feb 03 23:47:07 2018
Total elapsed time: 0.209 seconds.

tnom = 27
temp = 27
method = trap
totiter = 1500
traniter = 0
tranpoints = 0
accept = 0
rejected = 0
matrix size = 50
fillins = 11
solver = Normal
Thread vector: 32.3/20.1[3] 0.0/0.0[0] 6.7/4.6[3] 0.4/1.0[1]  2592/500
Matrix Compiler1:     168 opcodes  1.4/0.9/[0.4]
Matrix Compiler2: 4.80 KB object code size  1.6/1.4/[0.4]


