Circuit: * C:\git\ltspice-projects\Juno filter - xm8 computer tunable.asc

WARNING: Less than two connections to node NC_12.  This node is used by R:U18:2.
WARNING: Less than two connections to node NC_13.  This node is used by R:U24:2.
WARNING: Less than two connections to node LIN_FM.  This node is used by R46.
Ignoring empty pin current: Ix(u10:1)
Ignoring empty pin current: Ix(u10:2)
Ignoring empty pin current: Ix(u13:1)
Ignoring empty pin current: Ix(u13:2)
Ignoring empty pin current: Ix(u3:1)
Ignoring empty pin current: Ix(u3:2)
Ignoring empty pin current: Ix(u4:1)
Ignoring empty pin current: Ix(u4:2)
Ignoring empty pin current: Ix(u6:1)
Ignoring empty pin current: Ix(u6:2)
Ignoring empty pin current: Ix(u8:1)
Ignoring empty pin current: Ix(u8:2)
Ignoring empty pin current: Ix(u17:1)
Ignoring empty pin current: Ix(u17:2)
Ignoring empty pin current: Ix(u19:1)
Ignoring empty pin current: Ix(u19:2)
Ignoring empty pin current: Ix(u12:1)
Ignoring empty pin current: Ix(u12:2)
Ignoring empty pin current: Ix(u22:1)
Ignoring empty pin current: Ix(u22:2)
.step acv=0
Direct Newton iteration failed to find .op point.  (Use ".option noopiter" to skip.)
Starting Gmin stepping
Gmin = 10
Gmin = 1.07374
Gmin = 0.115292
Gmin = 0.0123794
Gmin = 0.00132923
Gmin = 0.000142725
Gmin = 1.5325e-005
Gmin = 1.6455e-006
Gmin = 1.76685e-007
Gmin = 1.89714e-008
Gmin = 2.03704e-009
Gmin = 2.18725e-010
Gmin = 2.34854e-011
Gmin = 2.52173e-012
Gmin = 2.70769e-013
Gmin = 0
Gmin stepping succeeded in finding the operating point.

Direct Newton iteration failed to find .op point.  (Use ".option noopiter" to skip.)
Starting Gmin stepping
Gmin = 10
Gmin = 1.07374
Gmin = 0.115292
Gmin = 0.0123794
Gmin = 0.00132923
Gmin = 0.000142725
Gmin = 1.5325e-005
Gmin = 1.6455e-006
Gmin = 1.76685e-007
Gmin = 1.89714e-008
Gmin = 2.03704e-009
Gmin = 2.18725e-010
Gmin = 2.34854e-011
Gmin = 2.52173e-012
Gmin = 2.70769e-013
Gmin = 0
Gmin stepping succeeded in finding the operating point.

.step acv=1
.step acv=2
.step acv=3
.step acv=4
.step acv=5

Date: Sun Feb 10 16:49:08 2019
Total elapsed time: 3.389 seconds.

tnom = 27
temp = 27
method = trap
totiter = 2265
traniter = 0
tranpoints = 0
accept = 0
rejected = 0
matrix size = 128
fillins = 150
solver = Normal
Thread vector: 94.2/33.4[8] 0.0/0.0[0] 41.5/12.6[8] 1.1/2.8[1]  2592/500
Matrix Compiler1: 15.09 KB object code size  9.6/5.1/[2.2]
Matrix Compiler2: 15.37 KB object code size  5.7/4.7/[1.7]


