Circuit: * C:\git\ltspice-projects\Juno filter.asc

Direct Newton iteration failed to find .op point.  (Use ".option noopiter" to skip.)
Starting Gmin stepping
Gmin = 10
Gmin = 1.07374
Gmin = 0.115292
Gmin = 0.0123794
Gmin = 0.00132923
Gmin = 0.000142725
Gmin = 1.5325e-005
vernier = 0.5
vernier = 0.25
vernier = 0.125
vernier = 0.0625
Gmin = 5.02168e-006
vernier = 0.03125
vernier = 0.0416667
Gmin = 4.63392e-006
vernier = 0.0555555
vernier = 0.074074
Gmin = 4.0278e-006
vernier = 0.0987653
Gmin = 3.23321e-006
vernier = 0.131687
vernier = 0.175583
Gmin = 2.24182e-006
vernier = 0.23411
vernier = 0.312147
Gmin = 1.25836e-006
vernier = 0.416196
Gmin = 5.14448e-007
vernier = 0.554928
vernier = 0.739903
Gmin = 1.19667e-007
vernier = 0.986537
vernier = 1
Gmin = 1.45312e-008
Gmin = 1.56028e-009
Gmin = 1.67533e-010
Gmin = 1.79888e-011
Gmin = 1.93153e-012
Gmin = 2.07396e-013
Gmin = 0
Gmin stepping succeeded in finding the operating point.


Date: Tue Jan 01 14:29:47 2019
Total elapsed time: 0.652 seconds.

tnom = 27
temp = 27
method = trap
totiter = 1204
traniter = 0
tranpoints = 0
accept = 0
rejected = 0
matrix size = 138
fillins = 214
solver = Normal
Matrix Compiler1:    1344 opcodes
Matrix Compiler2: 18.47 KB object code size  4.6/4.4/[1.6]


