Circuit: * C:\Users\Joakim\Documents\Elektronikk og synth\LTspice\Draft6.asc

WARNING: Less than two connections to node NC_03.  This node is used by Q:U4:N11.
Direct Newton iteration failed to find .op point.  (Use ".option noopiter" to skip.)
Starting Gmin stepping
Gmin = 10
Gmin = 1.07374
Gmin = 0.115292
Gmin = 0.0123794
Gmin = 0.00132923
Gmin = 0.000142725
Gmin = 1.5325e-005
Gmin = 1.6455e-006
vernier = 0.5
vernier = 0.25
vernier = 0.125
Gmin = 1.29446e-006
vernier = 0.166667
vernier = 0.222222
Gmin = 8.75274e-007
vernier = 0.296296
Gmin = 4.6727e-007
vernier = 0.395061
vernier = 0.526748
Gmin = 1.70579e-007
vernier = 0.702331
vernier = 0.936441
Gmin = 3.61304e-008
vernier = 1
Gmin = 4.13573e-009
Gmin = 4.44071e-010
Gmin = 4.76818e-011
Gmin = 5.11979e-012
Gmin = 5.49733e-013
Gmin = 0
Gmin stepping succeeded in finding the operating point.


Date: Sun Oct 29 14:12:55 2017
Total elapsed time: 0.223 seconds.

tnom = 27
temp = 27
method = modified trap
totiter = 1049
traniter = 74
tranpoints = 38
accept = 38
rejected = 0
matrix size = 40
fillins = 44
solver = Normal

