Circuit: * C:\Users\Joakim\Downloads\Juno filter sine input.asc

Direct Newton iteration failed to find .op point.  (Use ".option noopiter" to skip.)
Starting Gmin stepping
Gmin = 10
Gmin = 1.07374
Gmin = 0.115292
Gmin = 0.0123794
Gmin = 0.00132923
Gmin = 0.000142725
Gmin = 1.5325e-005
Gmin = 1.6455e-006
vernier = 0.5
vernier = 0.25
vernier = 0.125
vernier = 0.166667
Gmin = 1.35441e-006
vernier = 0.222222
Gmin = 8.42755e-007
vernier = 0.296296
vernier = 0.395061
Gmin = 3.92013e-007
vernier = 0.526748
vernier = 0.702331
Gmin = 1.19667e-007
vernier = 0.936441
Gmin = 1.86182e-008
vernier = 1
Gmin = 2.02486e-009
Gmin = 2.17417e-010
Gmin = 2.3345e-011
Gmin = 2.50665e-012
Gmin = 2.69149e-013
Gmin = 0
Gmin stepping succeeded in finding the operating point.


Date: Wed Oct 25 18:18:54 2017
Total elapsed time: 0.476 seconds.

tnom = 27
temp = 27
method = trap
totiter = 923
traniter = 0
tranpoints = 0
accept = 0
rejected = 0
matrix size = 138
fillins = 256
solver = Normal
Matrix Compiler1:    1583 opcodes
Matrix Compiler2: 19.21 KB object code size  4.7/4.4/[1.5]


