Circuit: * C:\Users\Joakim\Documents\Elektronikk og synth\LTspice\Juno filter with exp conv test 2.asc

WARNING: Node NC_14 is floating.
WARNING: Node NC_13 is floating.

WARNING: Less than two connections to node NC_12.  This node is used by R43.
WARNING: Less than two connections to node NC_14.  This node is used by J:U10:1.
WARNING: Less than two connections to node NC_13.  This node is used by J:U10:2.
.dc sweep increment has wrong sign -- fixing...
Direct Newton iteration failed to find .op point.  (Use ".option noopiter" to skip.)
Starting Gmin stepping
Gmin = 10
vernier = 0.5
vernier = 0.25
vernier = 0.125
Gmin = 5.35425
vernier = 0.0625
vernier = 0.03125
vernier = 0.015625
vernier = 0.0078125
Gmin = 5.1718
vernier = 0.00390625
vernier = 0.00195313
vernier = 0.000976563
vernier = 0.000488281
Gmin = 5.1592
Gmin = 0
Gmin stepping failed

Starting source stepping with srcstepmethod=0
Source Step = 3.0303%
Source Step = 33.3333%
Source Step = 40.5303%
Source Step = 42.4242%
Source Step = 44.3182%
Source Step = 46.2121%
Source Step = 48.1061%
vernier = 0.09375
Source Step = 50.4735%
Source Step = 53.3144%
Source Step = 56.1553%
Source Step = 58.9962%
Source Step = 61.8371%
vernier = 0.140625
Source Step = 65.2462%
Source Step = 69.5076%
Source Step = 73.7689%
Source Step = 78.0303%
Source Step = 82.2917%
vernier = 0.210938
Source Step = 87.1922%
Source Step = 93.5843%
Source Step = 99.9763%
Source stepping succeeded in finding the operating point.


Date: Sun Jan 14 22:31:28 2018
Total elapsed time: 1.695 seconds.

tnom = 27
temp = 27
method = trap
totiter = 5734
traniter = 0
tranpoints = 0
accept = 0
rejected = 0
matrix size = 175
fillins = 545
solver = Normal
Thread vector: 137.8/46.5[8] 0.0/0.0[0] 48.6/15.8[8] 1.6/2.4[1]  2592/500
Matrix Compiler1:    2886 opcodes  21.9/10.5/[3.1]
Matrix Compiler2: 27.55 KB object code size  8.0/7.1/[2.3]


