Circuit: * C:\Users\Joakim\Documents\Elektronikk og synth\LTspice\Juno filter core.asc

Direct Newton iteration failed to find .op point.  (Use ".option noopiter" to skip.)
Starting Gmin stepping
Gmin = 10
Gmin = 1.07374
Gmin = 0.115292
Gmin = 0.0123794
Gmin = 0.00132923
Gmin = 0.000142725
Gmin = 1.5325e-005
vernier = 0.5
vernier = 0.25
Gmin = 7.26842e-006
vernier = 0.333333
vernier = 0.444444
Gmin = 3.22622e-006
vernier = 0.592592
Gmin = 9.24011e-007
vernier = 0.790123
vernier = 1
Gmin = 1.28327e-007
Gmin = 1.3779e-008
Gmin = 1.47951e-009
Gmin = 1.58861e-010
Gmin = 1.70576e-011
Gmin = 1.83154e-012
Gmin = 1.9666e-013
Gmin = 0
Gmin stepping succeeded in finding the operating point.


Date: Sun Feb 04 20:06:48 2018
Total elapsed time: 0.481 seconds.

tnom = 27
temp = 27
method = trap
totiter = 823
traniter = 0
tranpoints = 0
accept = 0
rejected = 0
matrix size = 127
fillins = 244
solver = Normal
Matrix Compiler1:    1526 opcodes
Matrix Compiler2: 17.99 KB object code size  4.1/3.9/[1.4]


