Circuit: * C:\Users\Joakim\Documents\Elektronikk og synth\LTspice\Juno filter.asc

Direct Newton iteration failed to find .op point.  (Use ".option noopiter" to skip.)
Starting Gmin stepping
Gmin = 10
Gmin = 1.07374
Gmin = 0.115292
Gmin = 0.0123794
Gmin = 0.00132923
Gmin = 0.000142725
Gmin = 1.5325e-005
Gmin = 1.6455e-006
Gmin = 1.76685e-007
Gmin = 1.89714e-008
Gmin = 2.03704e-009
Gmin = 2.18725e-010
Gmin = 2.34854e-011
Gmin = 2.52173e-012
Gmin = 2.70769e-013
Gmin = 0
Gmin stepping succeeded in finding the operating point.


Date: Fri Dec 28 08:43:51 2018
Total elapsed time: 1.228 seconds.

tnom = 27
temp = 27
method = modified trap
totiter = 7010
traniter = 6448
tranpoints = 2629
accept = 1880
rejected = 749
matrix size = 138
fillins = 217
solver = Normal
Thread vector: 132.7/45.1[8] 69.6/16.5[8] 41.1/14.6[8] 1.3/2.8[1]  2592/500
Matrix Compiler1: 24.91 KB object code size  11.4/7.4/[4.2]
Matrix Compiler2: 18.55 KB object code size  6.1/6.6/[2.3]


