Circuit: * C:\git\ltspice-projects\Juno filter with exp conv test 2.asc

Early termination of direct N-R iteration.
Direct Newton iteration failed to find .op point.  (Use ".option noopiter" to skip.)
Starting Gmin stepping
Gmin = 10
Gmin = 1.07374
Gmin = 0.115292
Gmin = 0.0123794
Gmin = 0.00132923
Gmin = 0.000142725
Gmin = 1.5325e-005
vernier = 0.5
vernier = 0.25
vernier = 0.125
vernier = 0.0625
Gmin = 6.18053e-006
vernier = 0.0833333
Gmin = 5.1329e-006
vernier = 0.111111
vernier = 0.148148
Gmin = 3.76522e-006
vernier = 0.197531
vernier = 0.263374
Gmin = 2.30787e-006
vernier = 0.351165
Gmin = 1.07936e-006
vernier = 0.46822
vernier = 0.624294
Gmin = 3.11011e-007
vernier = 0.832392
vernier = 1
Gmin = 4.7904e-008
Gmin = 5.14365e-009
Gmin = 5.52295e-010
Gmin = 5.93023e-011
Gmin = 6.36753e-012
Gmin = 6.83709e-013
Gmin = 0
Gmin stepping succeeded in finding the operating point.

Ignoring empty pin current: Ix(u10:1)
Ignoring empty pin current: Ix(u10:2)
Ignoring empty pin current: Ix(u13:1)
Ignoring empty pin current: Ix(u13:2)
Ignoring empty pin current: Ix(u10:1)
Ignoring empty pin current: Ix(u10:2)
Ignoring empty pin current: Ix(u13:1)
Ignoring empty pin current: Ix(u13:2)

Date: Sun Dec 30 11:12:36 2018
Total elapsed time: 0.941 seconds.

tnom = 27
temp = 27
method = modified trap
totiter = 3114
traniter = 2098
tranpoints = 1050
accept = 1049
rejected = 1
matrix size = 142
fillins = 195
solver = Normal
Thread vector: 136.9/49.9[8] 69.1/25.9[8] 37.8/17.4[8] 1.5/4.4[1]  2592/500
Matrix Compiler1: 23.38 KB object code size  13.4/7.5/[4.0]
Matrix Compiler2: 18.30 KB object code size  6.8/6.4/[2.5]


