Circuit: * C:\git\ltspice-projects\Juno filter - xm8 half volt octave - 24kHz max with expo converter.asc

Ignoring empty pin current: Ix(u10:1)
Ignoring empty pin current: Ix(u10:2)
Ignoring empty pin current: Ix(u13:1)
Ignoring empty pin current: Ix(u13:2)
Ignoring empty pin current: Ix(u3:1)
Ignoring empty pin current: Ix(u3:2)
Ignoring empty pin current: Ix(u4:1)
Ignoring empty pin current: Ix(u4:2)
Ignoring empty pin current: Ix(u6:1)
Ignoring empty pin current: Ix(u6:2)
Ignoring empty pin current: Ix(u8:1)
Ignoring empty pin current: Ix(u8:2)
Ignoring empty pin current: Ix(u17:1)
Ignoring empty pin current: Ix(u17:2)
Ignoring empty pin current: Ix(u19:1)
Ignoring empty pin current: Ix(u19:2)
Ignoring empty pin current: Ix(u20:1)
Ignoring empty pin current: Ix(u20:2)
.step acv=0
Direct Newton iteration failed to find .op point.  (Use ".option noopiter" to skip.)
Starting Gmin stepping
Gmin = 10
Gmin = 1.07374
Gmin = 0.115292
Gmin = 0.0123794
Gmin = 0.00132923
Gmin = 0.000142725
Gmin = 1.5325e-005
Gmin = 1.6455e-006
Gmin = 1.76685e-007
Gmin = 1.89714e-008
Gmin = 2.03704e-009
Gmin = 2.18725e-010
Gmin = 2.34854e-011
Gmin = 2.52173e-012
Gmin = 2.70769e-013
Gmin = 0
Gmin stepping succeeded in finding the operating point.

.step acv=1
.step acv=2
.step acv=3
.step acv=4
.step acv=5

Date: Mon Jan 14 18:54:49 2019
Total elapsed time: 2.269 seconds.

tnom = 27
temp = 27
method = trap
totiter = 1616
traniter = 0
tranpoints = 0
accept = 0
rejected = 0
matrix size = 123
fillins = 143
solver = Normal
Thread vector: 75.7/30.8[8] 0.0/0.0[0] 31.3/14.7[8] 0.9/3.8[1]  2592/500
Matrix Compiler1:     818 opcodes  8.7/4.7/[1.8]
Matrix Compiler2: 14.74 KB object code size  5.1/4.3/[1.2]


