Circuit: * C:\git\ltspice-projects\Juno filter - xm8 half volt octave - correct juno VCA and RESO CVs.asc

WARNING: Less than two connections to node NC_12.  This node is used by R:U24:2.
WARNING: Less than two connections to node NC_13.  This node is used by R:U18:2.
Direct Newton iteration failed to find .op point.  (Use ".option noopiter" to skip.)
Starting Gmin stepping
Gmin = 10
Gmin = 1.07374
Gmin = 0.115292
Gmin = 0.0123794
Gmin = 0.00132923
Gmin = 0.000142725
Gmin = 1.5325e-005
Gmin = 1.6455e-006
Gmin = 1.76685e-007
Gmin = 1.89714e-008
Gmin = 2.03704e-009
Gmin = 2.18725e-010
Gmin = 2.34854e-011
Gmin = 2.52173e-012
Gmin = 2.70769e-013
Gmin = 0
Gmin stepping succeeded in finding the operating point.

Ignoring empty pin current: Ix(u10:1)
Ignoring empty pin current: Ix(u10:2)
Ignoring empty pin current: Ix(u13:1)
Ignoring empty pin current: Ix(u13:2)
Ignoring empty pin current: Ix(u3:1)
Ignoring empty pin current: Ix(u3:2)
Ignoring empty pin current: Ix(u4:1)
Ignoring empty pin current: Ix(u4:2)
Ignoring empty pin current: Ix(u6:1)
Ignoring empty pin current: Ix(u6:2)
Ignoring empty pin current: Ix(u8:1)
Ignoring empty pin current: Ix(u8:2)
Ignoring empty pin current: Ix(u17:1)
Ignoring empty pin current: Ix(u17:2)
Ignoring empty pin current: Ix(u19:1)
Ignoring empty pin current: Ix(u19:2)
Ignoring empty pin current: Ix(u20:1)
Ignoring empty pin current: Ix(u20:2)
Ignoring empty pin current: Ix(u12:1)
Ignoring empty pin current: Ix(u12:2)
Ignoring empty pin current: Ix(u22:1)
Ignoring empty pin current: Ix(u22:2)
Ignoring empty pin current: Ix(u10:1)
Ignoring empty pin current: Ix(u10:2)
Ignoring empty pin current: Ix(u13:1)
Ignoring empty pin current: Ix(u13:2)
Ignoring empty pin current: Ix(u3:1)
Ignoring empty pin current: Ix(u3:2)
Ignoring empty pin current: Ix(u4:1)
Ignoring empty pin current: Ix(u4:2)
Ignoring empty pin current: Ix(u6:1)
Ignoring empty pin current: Ix(u6:2)
Ignoring empty pin current: Ix(u8:1)
Ignoring empty pin current: Ix(u8:2)
Ignoring empty pin current: Ix(u17:1)
Ignoring empty pin current: Ix(u17:2)
Ignoring empty pin current: Ix(u19:1)
Ignoring empty pin current: Ix(u19:2)
Ignoring empty pin current: Ix(u20:1)
Ignoring empty pin current: Ix(u20:2)
Ignoring empty pin current: Ix(u12:1)
Ignoring empty pin current: Ix(u12:2)
Ignoring empty pin current: Ix(u22:1)
Ignoring empty pin current: Ix(u22:2)
.step acv=0
.step acv=1
.step acv=2
.step acv=3
.step acv=4
.step acv=5

Date: Mon Jan 14 21:41:17 2019
Total elapsed time: 2.734 seconds.

tnom = 27
temp = 27
method = modified trap
totiter = 1641
traniter = 1074
tranpoints = 500
accept = 355
rejected = 145
matrix size = 131
fillins = 176
solver = Normal
Thread vector: 86.2/38.4[8] 61.3/20.8[8] 31.3/13.1[8] 1.2/2.6[1]  2592/500
Matrix Compiler1: 15.90 KB object code size  10.6/5.4/[2.7]
Matrix Compiler2: 15.89 KB object code size  6.9/6.6/[1.7]


