Circuit: * C:\git\ltspice-projects\Jupiter 6 filter - proper CV - debug.asc

WARNING: Less than two connections to node NC_11.  This node is used by R34.
WARNING: Less than two connections to node NC_12.  This node is used by R18.
WARNING: Less than two connections to node NC_14.  This node is used by Q:U7:N11.
WARNING: Less than two connections to node NC_17.  This node is used by Q:U15:N11.
WARNING: Less than two connections to node NC_20.  This node is used by Q:U22:N11.
WARNING: Less than two connections to node NC_23.  This node is used by Q:U24:N11.
WARNING: Less than two connections to node NC_25.  This node is used by R62.
WARNING: Less than two connections to node NC_26.  This node is used by R65.
WARNING: Less than two connections to node NC_27.  This node is used by R:U25:2.
Direct Newton iteration failed to find .op point.  (Use ".option noopiter" to skip.)
Starting Gmin stepping
Gmin = 10
Gmin = 1.07374
Gmin = 0.115292
Gmin = 0.0123794
Gmin = 0.00132923
Gmin = 0.000142725
Gmin = 1.5325e-005
Gmin = 1.6455e-006
Gmin = 1.76685e-007
Gmin = 1.89714e-008
Gmin = 2.03704e-009
Gmin = 2.18725e-010
Gmin = 2.34854e-011
Gmin = 2.52173e-012
Gmin = 2.70769e-013
Gmin = 0
Gmin stepping succeeded in finding the operating point.

Ignoring empty pin current: Ix(u16:1)
Ignoring empty pin current: Ix(u16:2)
Ignoring empty pin current: Ix(u17:1)
Ignoring empty pin current: Ix(u17:2)
Ignoring empty pin current: Ix(u3:1)
Ignoring empty pin current: Ix(u3:2)
Ignoring empty pin current: Ix(u4:1)
Ignoring empty pin current: Ix(u4:2)
Ignoring empty pin current: Ix(u6:1)
Ignoring empty pin current: Ix(u6:2)
Ignoring empty pin current: Ix(u8:1)
Ignoring empty pin current: Ix(u8:2)
Ignoring empty pin current: Ix(u12:1)
Ignoring empty pin current: Ix(u12:2)
Ignoring empty pin current: Ix(u13:1)
Ignoring empty pin current: Ix(u13:2)
Ignoring empty pin current: Ix(u14:1)
Ignoring empty pin current: Ix(u14:2)
Ignoring empty pin current: Ix(u20:1)
Ignoring empty pin current: Ix(u20:2)
Ignoring empty pin current: Ix(u21:1)
Ignoring empty pin current: Ix(u21:2)
Ignoring empty pin current: Ix(u27:1)
Ignoring empty pin current: Ix(u27:2)
Ignoring empty pin current: Ix(u16:1)
Ignoring empty pin current: Ix(u16:2)
Ignoring empty pin current: Ix(u17:1)
Ignoring empty pin current: Ix(u17:2)
Ignoring empty pin current: Ix(u3:1)
Ignoring empty pin current: Ix(u3:2)
Ignoring empty pin current: Ix(u4:1)
Ignoring empty pin current: Ix(u4:2)
Ignoring empty pin current: Ix(u6:1)
Ignoring empty pin current: Ix(u6:2)
Ignoring empty pin current: Ix(u8:1)
Ignoring empty pin current: Ix(u8:2)
Ignoring empty pin current: Ix(u12:1)
Ignoring empty pin current: Ix(u12:2)
Ignoring empty pin current: Ix(u13:1)
Ignoring empty pin current: Ix(u13:2)
Ignoring empty pin current: Ix(u14:1)
Ignoring empty pin current: Ix(u14:2)
Ignoring empty pin current: Ix(u20:1)
Ignoring empty pin current: Ix(u20:2)
Ignoring empty pin current: Ix(u21:1)
Ignoring empty pin current: Ix(u21:2)
Ignoring empty pin current: Ix(u27:1)
Ignoring empty pin current: Ix(u27:2)

Date: Sun Jan 27 08:32:34 2019
Total elapsed time: 0.852 seconds.

tnom = 27
temp = 27
method = modified trap
totiter = 1285
traniter = 759
tranpoints = 367
accept = 259
rejected = 108
matrix size = 184
fillins = 270
solver = Normal
Thread vector: 120.5/50.2[8] 92.0/37.6[8] 58.2/20.0[8] 1.7/4.0[1]  2592/500
Matrix Compiler1: 24.00 KB object code size  15.4/8.8/[4.4]
Matrix Compiler2: 23.02 KB object code size  8.4/8.0/[3.0]


