Circuit: * C:\Users\Joakim\Documents\Elektronikk og synth\LTspice\Jupiter 6 filter.asc

WARNING: Less than two connections to node N038.  This node is used by R34.
WARNING: Less than two connections to node NC_11.  This node is used by R18.
WARNING: Less than two connections to node NC_13.  This node is used by Q:U7:N11.
WARNING: Less than two connections to node NC_16.  This node is used by Q:U15:N11.
Early termination of direct N-R iteration.
Direct Newton iteration failed to find .op point.  (Use ".option noopiter" to skip.)
Starting Gmin stepping
Gmin = 10
Gmin = 1.07374
Gmin = 0.115292
Gmin = 0.0123794
Gmin = 0.00132923
Gmin = 0.000142725
Gmin = 1.5325e-005
vernier = 0.5
vernier = 0.25
Gmin = 4.72629e-006
vernier = 0.333333
vernier = 0.166667
vernier = 0.0833333
Gmin = 3.4861e-006
vernier = 0.111111
vernier = 0.148148
Gmin = 2.63904e-006
vernier = 0.197531
Gmin = 1.7087e-006
vernier = 0.263374
vernier = 0.351165
Gmin = 8.32382e-007
vernier = 0.46822
vernier = 0.624294
Gmin = 2.70903e-007
vernier = 0.832392
Gmin = 4.87819e-008
vernier = 1
Gmin = 5.23792e-009
Gmin = 5.62417e-010
Gmin = 6.03891e-011
Gmin = 6.48423e-012
Gmin = 6.96239e-013
Gmin = 0
Gmin stepping succeeded in finding the operating point.


Date: Sat Nov 04 21:45:44 2017
Total elapsed time: 0.638 seconds.

tnom = 27
temp = 27
method = trap
totiter = 1032
traniter = 0
tranpoints = 0
accept = 0
rejected = 0
matrix size = 171
fillins = 281
solver = Normal
Matrix Compiler1:    1677 opcodes
Matrix Compiler2: 23.17 KB object code size  6.0/4.8/[2.0]


