Circuit: * C:\Users\Joakim\Documents\Elektronikk og synth\LTspice\Jupiter 6 filter debug.asc

WARNING: Less than two connections to node N023.  This node is used by R33.
WARNING: Less than two connections to node NC_05.  This node is used by Q:U15:N11.
Direct Newton iteration failed to find .op point.  (Use ".option noopiter" to skip.)
Starting Gmin stepping
Gmin = 10
Gmin = 1.07374
Gmin = 0.115292
Gmin = 0.0123794
Gmin = 0.00132923
Gmin = 0.000142725
Gmin = 1.5325e-005
vernier = 0.5
vernier = 0.25
Gmin = 4.46372e-006
vernier = 0.333333
Gmin = 2.20923e-006
vernier = 0.444444
vernier = 0.592592
Gmin = 7.16046e-007
vernier = 0.790123
vernier = 1
Gmin = 1.28327e-007
Gmin = 1.3779e-008
Gmin = 1.47951e-009
Gmin = 1.58861e-010
Gmin = 1.70576e-011
Gmin = 1.83154e-012
Gmin = 1.9666e-013
Gmin = 0
Gmin stepping succeeded in finding the operating point.


Date: Wed Oct 25 15:39:40 2017
Total elapsed time: 0.318 seconds.

tnom = 27
temp = 27
method = trap
totiter = 792
traniter = 0
tranpoints = 0
accept = 0
rejected = 0
matrix size = 81
fillins = 92
solver = Normal
Matrix Compiler1:     619 opcodes
Matrix Compiler2: 10.09 KB object code size  2.5/2.7/[1.2]


