Circuit: * C:\git\ltspice-projects\Jupiter 6 filter - no VCA.asc

WARNING: Less than two connections to node NC_09.  This node is used by R34.
WARNING: Less than two connections to node NC_10.  This node is used by R18.
WARNING: Less than two connections to node NC_12.  This node is used by Q:U7:N11.
WARNING: Less than two connections to node NC_15.  This node is used by Q:U15:N11.
WARNING: Less than two connections to node NC_17.  This node is used by R62.
WARNING: Less than two connections to node NC_18.  This node is used by R65.
WARNING: Less than two connections to node VCA_I_ABC.  This node is used by R31.
WARNING: Less than two connections to node NC_19.  This node is used by R:U31:2.
WARNING: Less than two connections to node LIN_FM.  This node is used by R30.
WARNING: Less than two connections to node NC_20.  This node is used by R58.
WARNING: Less than two connections to node NC_21.  This node is used by Q:U22:N11.
WARNING: Less than two connections to node NC_23.  This node is used by R70.
WARNING: Less than two connections to node NC_24.  This node is used by R11.
Direct Newton iteration failed to find .op point.  (Use ".option noopiter" to skip.)
Starting Gmin stepping
Gmin = 10
Gmin = 1.07374
Gmin = 0.115292
Gmin = 0.0123794
Gmin = 0.00132923
Gmin = 0.000142725
Gmin = 1.5325e-005
Gmin = 1.6455e-006
Gmin = 1.76685e-007
Gmin = 1.89714e-008
Gmin = 2.03704e-009
Gmin = 2.18725e-010
Gmin = 2.34854e-011
Gmin = 2.52173e-012
Gmin = 2.70769e-013
Gmin = 0
Gmin stepping succeeded in finding the operating point.

Ignoring empty pin current: Ix(u16:1)
Ignoring empty pin current: Ix(u16:2)
Ignoring empty pin current: Ix(u17:1)
Ignoring empty pin current: Ix(u17:2)
Ignoring empty pin current: Ix(u3:1)
Ignoring empty pin current: Ix(u3:2)
Ignoring empty pin current: Ix(u4:1)
Ignoring empty pin current: Ix(u4:2)
Ignoring empty pin current: Ix(u6:1)
Ignoring empty pin current: Ix(u6:2)
Ignoring empty pin current: Ix(u8:1)
Ignoring empty pin current: Ix(u8:2)
Ignoring empty pin current: Ix(u12:1)
Ignoring empty pin current: Ix(u12:2)
Ignoring empty pin current: Ix(u13:1)
Ignoring empty pin current: Ix(u13:2)
Ignoring empty pin current: Ix(u14:1)
Ignoring empty pin current: Ix(u14:2)
Ignoring empty pin current: Ix(u21:1)
Ignoring empty pin current: Ix(u21:2)
Ignoring empty pin current: Ix(u27:1)
Ignoring empty pin current: Ix(u27:2)
Ignoring empty pin current: Ix(u29:1)
Ignoring empty pin current: Ix(u29:2)
Ignoring empty pin current: Ix(u32:1)
Ignoring empty pin current: Ix(u32:2)
Ignoring empty pin current: Ix(u20:1)
Ignoring empty pin current: Ix(u20:2)
Ignoring empty pin current: Ix(u23:1)
Ignoring empty pin current: Ix(u23:2)
Ignoring empty pin current: Ix(u24:1)
Ignoring empty pin current: Ix(u24:2)
Ignoring empty pin current: Ix(u16:1)
Ignoring empty pin current: Ix(u16:2)
Ignoring empty pin current: Ix(u17:1)
Ignoring empty pin current: Ix(u17:2)
Ignoring empty pin current: Ix(u3:1)
Ignoring empty pin current: Ix(u3:2)
Ignoring empty pin current: Ix(u4:1)
Ignoring empty pin current: Ix(u4:2)
Ignoring empty pin current: Ix(u6:1)
Ignoring empty pin current: Ix(u6:2)
Ignoring empty pin current: Ix(u8:1)
Ignoring empty pin current: Ix(u8:2)
Ignoring empty pin current: Ix(u12:1)
Ignoring empty pin current: Ix(u12:2)
Ignoring empty pin current: Ix(u13:1)
Ignoring empty pin current: Ix(u13:2)
Ignoring empty pin current: Ix(u14:1)
Ignoring empty pin current: Ix(u14:2)
Ignoring empty pin current: Ix(u21:1)
Ignoring empty pin current: Ix(u21:2)
Ignoring empty pin current: Ix(u27:1)
Ignoring empty pin current: Ix(u27:2)
Ignoring empty pin current: Ix(u29:1)
Ignoring empty pin current: Ix(u29:2)
Ignoring empty pin current: Ix(u32:1)
Ignoring empty pin current: Ix(u32:2)
Ignoring empty pin current: Ix(u20:1)
Ignoring empty pin current: Ix(u20:2)
Ignoring empty pin current: Ix(u23:1)
Ignoring empty pin current: Ix(u23:2)
Ignoring empty pin current: Ix(u24:1)
Ignoring empty pin current: Ix(u24:2)

Date: Thu Mar 21 21:45:18 2019
Total elapsed time: 1.039 seconds.

tnom = 27
temp = 27
method = modified trap
totiter = 5547
traniter = 4961
tranpoints = 1940
accept = 1433
rejected = 507
matrix size = 170
fillins = 251
solver = Normal
Thread vector: 96.2/45.8[8] 68.9/23.3[8] 35.2/19.7[8] 1.5/1.7[1]  2592/500
Matrix Compiler1: 22.35 KB object code size  11.1/6.9/[3.5]
Matrix Compiler2: 20.69 KB object code size  6.7/7.0/[2.6]


