Circuit: * C:\git\ltspice-projects\Jupiter 6 filter - proper CV - debug ringing.asc

WARNING: Less than two connections to node N020.  This node is used by R33.
WARNING: Less than two connections to node NC_06.  This node is used by Q:U15:N11.
Direct Newton iteration failed to find .op point.  (Use ".option noopiter" to skip.)
Starting Gmin stepping
Gmin = 10
Gmin = 1.07374
Gmin = 0.115292
Gmin = 0.0123794
Gmin = 0.00132923
Gmin = 0.000142725
Gmin = 1.5325e-005
Gmin = 1.6455e-006
Gmin = 1.76685e-007
Gmin = 1.89714e-008
Gmin = 2.03704e-009
vernier = 0.5
vernier = 0.25
vernier = 0.333333
Gmin = 1.11092e-009
vernier = 0.444444
vernier = 0.222222
vernier = 0.111111
Gmin = 7.04811e-010
vernier = 0.148148
vernier = 0.197531
Gmin = 4.97366e-010
vernier = 0.263374
vernier = 0.131687
vernier = 0.0658435
Gmin = 3.7829e-010
vernier = 0.0877914
vernier = 0.117055
Gmin = 3.07223e-010
vernier = 0.156073
vernier = 0.0780367
vernier = 0.0390184
Gmin = 2.60849e-010
vernier = 0.0520245
vernier = 0.0693659
Gmin = 2.30464e-010
vernier = 0.0924879
Gmin = 1.88639e-010
vernier = 0.123317
vernier = 0.0616586
vernier = 0.0308293
vernier = 0.0411057
Gmin = 1.75627e-010
vernier = 0.0548076
Gmin = 1.55898e-010
vernier = 0.0730768
vernier = 0.0974357
vernier = 0.0487178
vernier = 0.0243589
Gmin = 1.3796e-010
vernier = 0.0324786
Gmin = 1.28531e-010
vernier = 0.0433047
vernier = 0.0577396
Gmin = 1.1449e-010
vernier = 0.0769862
vernier = 0.0384931
vernier = 0.0192465
Gmin = 1.07586e-010
vernier = 0.025662
vernier = 0.0342161
Gmin = 1.0044e-010
vernier = 0.0456214
vernier = 0.0608285
Gmin = 9.00959e-011
vernier = 0.0304143
vernier = 0.0152071
vernier = 0.0202762
Gmin = 8.83959e-011
vernier = 0.0270349
vernier = 0.0360465
Gmin = 8.28697e-011
vernier = 0.048062
vernier = 0.024031
vernier = 0.0120155
Gmin = 7.80594e-011
vernier = 0.0160207
Gmin = 7.53007e-011
vernier = 0.0213609
vernier = 0.0284812
Gmin = 7.08917e-011
vernier = 0.0379749
vernier = 0.0506331
vernier = 0.0253166
Gmin = 6.60406e-011
vernier = 0.0126583
vernier = 0.0168777
Gmin = 6.39198e-011
vernier = 0.0225036
vernier = 0.0300048
Gmin = 6.03766e-011
vernier = 0.0400064
vernier = 0.0200032
vernier = 0.0100016
Gmin = 5.81611e-011
vernier = 0.0133355
vernier = 0.0177806
Gmin = 5.62261e-011
vernier = 0.0237075
Gmin = 5.33132e-011
vernier = 0.03161
vernier = 0.0421466
vernier = 0.0210733
vernier = 0.0105366
Gmin = 5.07202e-011
vernier = 0.0140489
Gmin = 4.91445e-011
vernier = 0.0187318
vernier = 0.0249757
Gmin = 4.6611e-011
vernier = 0.033301
vernier = 0.0166505
vernier = 0.00832524
Gmin = 4.55582e-011
vernier = 0.0111003
vernier = 0.0148004
Gmin = 4.41499e-011
vernier = 0.0197339
vernier = 0.0263119
Gmin = 4.19955e-011
vernier = 0.0131559
vernier = 0.00657796
Gmin = 4.11093e-011
vernier = 0.00877062
vernier = 0.0116942
Gmin = 4.01016e-011
vernier = 0.0155922
vernier = 0.0207896
Gmin = 3.85465e-011
vernier = 0.0277195
vernier = 0.0138597
vernier = 0.00692986
Gmin = 3.75599e-011
vernier = 0.00923982
vernier = 0.0123198
Gmin = 3.66892e-011
vernier = 0.0164263
Gmin = 3.53604e-011
vernier = 0.0219018
vernier = 0.0292024
vernier = 0.0146012
vernier = 0.00730059
Gmin = 3.41583e-011
vernier = 0.00973411
Gmin = 3.34191e-011
vernier = 0.0129788
vernier = 0.0173051
Gmin = 3.22147e-011
vernier = 0.0230734
vernier = 0.0115367
vernier = 0.00576836
Gmin = 3.17085e-011
vernier = 0.00769114
vernier = 0.0102549
Gmin = 3.10257e-011
vernier = 0.0136731
vernier = 0.0182308
Gmin = 2.99679e-011
vernier = 0.0243078
vernier = 0.0121539
vernier = 0.00607695
Gmin = 2.9294e-011
vernier = 0.00810259
vernier = 0.0108035
Gmin = 2.86975e-011
vernier = 0.0144046
Gmin = 2.77838e-011
vernier = 0.0192061
vernier = 0.00960307
vernier = 0.00480153
vernier = 0.00640204
Gmin = 2.75295e-011
vernier = 0.00853606
Gmin = 2.70063e-011
vernier = 0.0113814
vernier = 0.0151752
Gmin = 2.61507e-011
vernier = 0.0202336
vernier = 0.0101168
vernier = 0.0050584
Gmin = 2.57899e-011
vernier = 0.00674453
vernier = 0.00899271
Gmin = 2.53022e-011
vernier = 0.0119903
vernier = 0.015987
Gmin = 2.45439e-011
vernier = 0.021316
vernier = 0.010658
vernier = 0.00532901
Gmin = 2.40592e-011
vernier = 0.00710534
vernier = 0.00947379
Gmin = 2.3629e-011
vernier = 0.0126317
Gmin = 2.29678e-011
vernier = 0.0168423
vernier = 0.00842114
vernier = 0.00421057
vernier = 0.00561409
Gmin = 2.27833e-011
vernier = 0.00748545
Gmin = 2.24031e-011
vernier = 0.0099806
vernier = 0.0133075
Gmin = 2.17793e-011
vernier = 0.0177433
vernier = 0.00887164
vernier = 0.00443582
Gmin = 2.15156e-011
vernier = 0.00591443
vernier = 0.0078859
Gmin = 2.11583e-011
vernier = 0.0105145
vernier = 0.0140194
Gmin = 2.06011e-011
vernier = 0.0186925
vernier = 0.00934624
vernier = 0.00467312
Gmin = 2.02438e-011
vernier = 0.00623083
vernier = 0.00830777
Gmin = 1.9926e-011
vernier = 0.011077
Gmin = 1.94361e-011
vernier = 0.0147694
vernier = 0.00738468
vernier = 0.00369234
vernier = 0.00492312
Gmin = 1.92991e-011
vernier = 0.00656416
Gmin = 1.90164e-011
vernier = 0.00875221
vernier = 0.0116696
Gmin = 1.85512e-011
vernier = 0.0155595
vernier = 0.00777973
vernier = 0.00388987
Gmin = 1.8354e-011
vernier = 0.00518649
vernier = 0.00691532
Gmin = 1.80865e-011
vernier = 0.00922042
vernier = 0.0122939
Gmin = 1.7668e-011
vernier = 0.0163918
vernier = 0.00819592
vernier = 0.00409796
Gmin = 1.7399e-011
vernier = 0.00546395
vernier = 0.00728526
Gmin = 1.71592e-011
vernier = 0.00971368
Gmin = 1.67886e-011
vernier = 0.0129516
vernier = 0.00647579
vernier = 0.00323789
vernier = 0.00431719
Gmin = 1.66848e-011
vernier = 0.00575625
Gmin = 1.64702e-011
vernier = 0.007675
vernier = 0.0102333
Gmin = 1.61163e-011
vernier = 0.0136444
vernier = 0.00682222
vernier = 0.00341111
Gmin = 1.5966e-011
vernier = 0.00454814
vernier = 0.00606419
Gmin = 1.57617e-011
vernier = 0.00808559
vernier = 0.0107808
Gmin = 1.54414e-011
vernier = 0.0143744
vernier = 0.00718718
vernier = 0.00359359
Gmin = 1.5235e-011
vernier = 0.00479145
vernier = 0.0063886
Gmin = 1.50507e-011
vernier = 0.00851814
Gmin = 1.47653e-011
vernier = 0.0113575
vernier = 0.00567876
vernier = 0.00283938
vernier = 0.00378584
Gmin = 1.46851e-011
vernier = 0.00504778
Gmin = 1.45194e-011
vernier = 0.00673037
vernier = 0.00897383
Gmin = 1.42454e-011
vernier = 0.0119651
vernier = 0.00598255
vernier = 0.00299128
Gmin = 1.41288e-011
vernier = 0.00398837
vernier = 0.00531782
Gmin = 1.39701e-011
vernier = 0.00709043
vernier = 0.0094539
Gmin = 1.37209e-011
vernier = 0.0126052
vernier = 0.0063026
vernier = 0.0031513
Gmin = 1.35598e-011
vernier = 0.00420173
vernier = 0.00560231
Gmin = 1.34159e-011
vernier = 0.00746974
Gmin = 1.31925e-011
vernier = 0.00995965
vernier = 0.0132795
vernier = 0.00663977
vernier = 0.00331988
Gmin = 1.29863e-011
vernier = 0.00442651
Gmin = 1.28577e-011
vernier = 0.00590201
vernier = 0.00786935
Gmin = 1.26446e-011
vernier = 0.0104925
vernier = 0.00524623
vernier = 0.00262311
Gmin = 1.25538e-011
vernier = 0.00349749
vernier = 0.00466331
Gmin = 1.24301e-011
vernier = 0.00621775
vernier = 0.00829033
Gmin = 1.22353e-011
vernier = 0.0110538
vernier = 0.00552688
vernier = 0.00276344
Gmin = 1.21093e-011
vernier = 0.00368459
vernier = 0.00491278
Gmin = 1.19965e-011
vernier = 0.00655038
Gmin = 1.18211e-011
vernier = 0.00873383
vernier = 0.0116451
vernier = 0.00582255
vernier = 0.00291128
Gmin = 1.16589e-011
vernier = 0.0038817
Gmin = 1.15576e-011
vernier = 0.0051756
vernier = 0.0069008
Gmin = 1.13895e-011
vernier = 0.00920106
vernier = 0.00460053
vernier = 0.00230027
Gmin = 1.13177e-011
vernier = 0.00306702
vernier = 0.00408936
Gmin = 1.12198e-011
vernier = 0.00545248
vernier = 0.00726997
Gmin = 1.10655e-011
vernier = 0.00969329
vernier = 0.00484665
vernier = 0.00242332
Gmin = 1.09655e-011
vernier = 0.0032311
vernier = 0.00430813
Gmin = 1.08758e-011
vernier = 0.00574417
Gmin = 1.07363e-011
vernier = 0.00765889
vernier = 0.0102118
vernier = 0.00510592
vernier = 0.00255296
Gmin = 1.0607e-011
vernier = 0.00340395
Gmin = 1.05261e-011
vernier = 0.0045386
vernier = 0.00605146
Gmin = 1.03917e-011
vernier = 0.00806861
vernier = 0.0107581
vernier = 0.00537907
Gmin = 1.02358e-011
vernier = 0.00268954
vernier = 0.00358605
Gmin = 1.0165e-011
vernier = 0.0047814
vernier = 0.00637519
Gmin = 1.00423e-011
vernier = 0.00850026
vernier = 0.00425013
vernier = 0.00212506
Gmin = 9.9626e-012
vernier = 0.00283342
vernier = 0.00377789
Gmin = 9.89114e-012
vernier = 0.00503719
Gmin = 9.77973e-012
vernier = 0.00671625
vernier = 0.00895499
vernier = 0.0044775
vernier = 0.00223875
Gmin = 9.67637e-012
vernier = 0.002985
Gmin = 9.61162e-012
vernier = 0.00397999
vernier = 0.00530666
Gmin = 9.5039e-012
vernier = 0.00707554
vernier = 0.00943405
vernier = 0.00471703
Gmin = 9.37875e-012
vernier = 0.00235851
vernier = 0.00314468
Gmin = 9.32181e-012
vernier = 0.00419291
vernier = 0.00559055
Gmin = 9.22304e-012
vernier = 0.00745406
Gmin = 9.06978e-012
vernier = 0.00993874
vernier = 0.00496937
vernier = 0.00248469
vernier = 0.00331291
Gmin = 9.0267e-012
vernier = 0.00441722
Gmin = 8.93748e-012
vernier = 0.00588962
vernier = 0.00785283
vernier = 0.00392641
vernier = 0.00196321
Gmin = 8.85458e-012
vernier = 0.00261761
Gmin = 8.8026e-012
vernier = 0.00349014
vernier = 0.00465352
Gmin = 8.71602e-012
vernier = 0.0062047
vernier = 0.00827293
vernier = 0.00413646
Gmin = 8.61529e-012
vernier = 0.00206823
vernier = 0.00275764
Gmin = 8.56939e-012
vernier = 0.00367685
vernier = 0.00490247
Gmin = 8.48972e-012
vernier = 0.00653663
Gmin = 8.36586e-012
vernier = 0.0087155
vernier = 0.00435775
vernier = 0.00217887
vernier = 0.00290517
Gmin = 8.33101e-012
vernier = 0.00387355
Gmin = 8.25875e-012
vernier = 0.00516474
vernier = 0.00688631
Gmin = 8.13886e-012
vernier = 0.00918175
vernier = 0.00459087
vernier = 0.00229544
Gmin = 8.08768e-012
vernier = 0.00306058
vernier = 0.00408078
Gmin = 8.01788e-012
vernier = 0.00544103
vernier = 0.00725471
vernier = 0.00362735
Gmin = 7.93655e-012
vernier = 0.00181368
vernier = 0.00241824
Gmin = 7.89946e-012
vernier = 0.00322431
vernier = 0.00429908
Gmin = 7.83502e-012
vernier = 0.00573211
Gmin = 7.73468e-012
vernier = 0.00764281
vernier = 0.00382141
vernier = 0.0019107
vernier = 0.0025476
Gmin = 7.70641e-012
vernier = 0.0033968
Gmin = 7.64776e-012
vernier = 0.00452907
vernier = 0.00603876
Gmin = 7.55031e-012
vernier = 0.00805168
vernier = 0.00402584
vernier = 0.00201292
Gmin = 7.50866e-012
vernier = 0.00268389
vernier = 0.00357852
Gmin = 7.4518e-012
vernier = 0.00477136
vernier = 0.00636181
Gmin = 7.36203e-012
vernier = 0.00848241
vernier = 0.00424121
vernier = 0.0021206
Gmin = 7.30376e-012
vernier = 0.00282747
vernier = 0.00376996
Gmin = 7.25147e-012
vernier = 0.00502661
Gmin = 7.16997e-012
vernier = 0.00670215
vernier = 0.00893619
vernier = 0.0044681
vernier = 0.00223405
Gmin = 7.09435e-012
vernier = 0.00297873
Gmin = 7.04697e-012
vernier = 0.00397164
vernier = 0.00529552
Gmin = 6.96816e-012
vernier = 0.00706069
vernier = 0.00353034
vernier = 0.00176517
Gmin = 6.93444e-012
vernier = 0.00235356
vernier = 0.00313808
Gmin = 6.88836e-012
vernier = 0.00418411
vernier = 0.00557881
Gmin = 6.81554e-012
vernier = 0.00743841
vernier = 0.00371921
vernier = 0.0018596
Gmin = 6.7682e-012
vernier = 0.00247947
vernier = 0.00330596
Gmin = 6.7257e-012
vernier = 0.00440794
Gmin = 6.65936e-012
vernier = 0.00587726
vernier = 0.00783634
vernier = 0.00391817
vernier = 0.00195909
Gmin = 6.59772e-012
vernier = 0.00261211
Gmin = 6.55907e-012
vernier = 0.00348282
vernier = 0.00464375
Gmin = 6.49469e-012
vernier = 0.00619167
vernier = 0.00825556
vernier = 0.00412778
Gmin = 6.41978e-012
vernier = 0.00206389
vernier = 0.00275185
Gmin = 6.38566e-012
vernier = 0.00366914
vernier = 0.00489218
Gmin = 6.32641e-012
vernier = 0.0065229
vernier = 0.00326145
vernier = 0.00163073
Gmin = 6.28786e-012
vernier = 0.0021743
vernier = 0.00289907
Gmin = 6.25322e-012
vernier = 0.00386542
Gmin = 6.19909e-012
vernier = 0.0051539
vernier = 0.00687186
vernier = 0.00343593
vernier = 0.00171796
Gmin = 6.14874e-012
vernier = 0.00229062
Gmin = 6.11714e-012
vernier = 0.00305416
vernier = 0.00407221
Gmin = 6.06446e-012
vernier = 0.00542961
vernier = 0.00723948
vernier = 0.00361974
Gmin = 6.00307e-012
vernier = 0.00180987
vernier = 0.00241316
Gmin = 5.97508e-012
vernier = 0.00321754
vernier = 0.00429006
Gmin = 5.92644e-012
vernier = 0.00572008
Gmin = 5.8507e-012
vernier = 0.00762677
vernier = 0.00381338
vernier = 0.00190669
vernier = 0.00254226
Gmin = 5.82936e-012
vernier = 0.00338967
Gmin = 5.78509e-012
vernier = 0.00451956
vernier = 0.00602608
vernier = 0.00301304
vernier = 0.00150652
Gmin = 5.74386e-012
vernier = 0.00200869
Gmin = 5.71797e-012
vernier = 0.00267826
vernier = 0.00357101
Gmin = 5.67476e-012
vernier = 0.00476134
vernier = 0.00634846
vernier = 0.00317423
Gmin = 5.62435e-012
vernier = 0.00158711
vernier = 0.00211615
Gmin = 5.60134e-012
vernier = 0.00282153
vernier = 0.00376205
Gmin = 5.56133e-012
vernier = 0.00501606
Gmin = 5.49895e-012
vernier = 0.00668808
vernier = 0.00334404
vernier = 0.00167202
vernier = 0.00222936
Gmin = 5.48136e-012
vernier = 0.00297248
Gmin = 5.44484e-012
vernier = 0.0039633
vernier = 0.0052844
Gmin = 5.38407e-012
vernier = 0.00704587
vernier = 0.00352293
vernier = 0.00176147
Gmin = 5.35807e-012
vernier = 0.00234862
vernier = 0.0031315
Gmin = 5.32254e-012
vernier = 0.00417533
vernier = 0.0055671
Gmin = 5.26639e-012
vernier = 0.0074228
vernier = 0.0037114
vernier = 0.0018557
Gmin = 5.22989e-012
vernier = 0.00247427
vernier = 0.00329902
Gmin = 5.19711e-012
vernier = 0.00439869
Gmin = 5.14596e-012
vernier = 0.00586492
vernier = 0.00293246
vernier = 0.00146623
vernier = 0.00195497
Gmin = 5.13152e-012
vernier = 0.00260663
Gmin = 5.10152e-012
vernier = 0.00347551
vernier = 0.00463401
Gmin = 5.05155e-012
vernier = 0.00617867
vernier = 0.00308934
vernier = 0.00154467
Gmin = 5.03015e-012
vernier = 0.00205956
vernier = 0.00274608
Gmin = 5.00089e-012
vernier = 0.00366143
vernier = 0.00488191
Gmin = 4.95459e-012
vernier = 0.00650921
vernier = 0.00325461
vernier = 0.0016273
Gmin = 4.92446e-012
vernier = 0.00216974
vernier = 0.00289298
Gmin = 4.89739e-012
vernier = 0.00385731
Gmin = 4.85509e-012
vernier = 0.00514308
vernier = 0.00685743
vernier = 0.00342872
vernier = 0.00171436
Gmin = 4.81574e-012
vernier = 0.00228581
Gmin = 4.79104e-012
vernier = 0.00304775
vernier = 0.00406366
Gmin = 4.74986e-012
vernier = 0.00541821
vernier = 0.00722428
vernier = 0.00361214
Gmin = 4.70188e-012
vernier = 0.00180607
vernier = 0.00240809
Gmin = 4.68e-012
vernier = 0.00321079
vernier = 0.00428105
Gmin = 4.64198e-012
vernier = 0.00570807
vernier = 0.00285403
vernier = 0.00142702
Gmin = 4.61722e-012
vernier = 0.00190269
vernier = 0.00253692
Gmin = 4.59495e-012
vernier = 0.00338256
Gmin = 4.56012e-012
vernier = 0.00451008
vernier = 0.00601343
vernier = 0.00300672
vernier = 0.00150336
Gmin = 4.52769e-012
vernier = 0.00200448
Gmin = 4.50732e-012
vernier = 0.00267264
vernier = 0.00356351
Gmin = 4.47334e-012
vernier = 0.00475135
vernier = 0.00633513
vernier = 0.00316757
Gmin = 4.43368e-012
vernier = 0.00158378
vernier = 0.00211171
Gmin = 4.41558e-012
vernier = 0.00281561
vernier = 0.00375415
Gmin = 4.38411e-012
vernier = 0.00500553
Gmin = 4.33504e-012
vernier = 0.00667404
vernier = 0.00333702
vernier = 0.00166851
vernier = 0.00222468
Gmin = 4.3212e-012
vernier = 0.00296624
Gmin = 4.29247e-012
vernier = 0.00395498
vernier = 0.00527331
Gmin = 4.24466e-012
vernier = 0.00703108
vernier = 0.00351554
vernier = 0.00175777
Gmin = 4.2242e-012
vernier = 0.00234369
vernier = 0.00312492
Gmin = 4.19625e-012
vernier = 0.00416656
vernier = 0.00555541
vernier = 0.00277771
Gmin = 4.16361e-012
vernier = 0.00138885
vernier = 0.0018518
Gmin = 4.14871e-012
vernier = 0.00246907
vernier = 0.00329209
Gmin = 4.12276e-012
vernier = 0.00438946
Gmin = 4.08226e-012
vernier = 0.00585261
vernier = 0.0029263
vernier = 0.00146315
vernier = 0.00195087
Gmin = 4.07083e-012
vernier = 0.00260116
Gmin = 4.04709e-012
vernier = 0.00346821
vernier = 0.00462428
Gmin = 4.00753e-012
vernier = 0.0061657
vernier = 0.00308285
vernier = 0.00154143
Gmin = 3.99059e-012
vernier = 0.00205523
vernier = 0.00274031
Gmin = 3.96742e-012
vernier = 0.00365375
vernier = 0.00487166
Gmin = 3.93077e-012
vernier = 0.00649555
vernier = 0.00324777
vernier = 0.00162389
Gmin = 3.90692e-012
vernier = 0.00216518
vernier = 0.00288691
Gmin = 3.88548e-012
vernier = 0.00384921
Gmin = 3.85199e-012
vernier = 0.00513228
vernier = 0.00256614
vernier = 0.00128307
vernier = 0.00171076
Gmin = 3.84253e-012
vernier = 0.00228101
Gmin = 3.82286e-012
vernier = 0.00304135
vernier = 0.00405513
Gmin = 3.79008e-012
vernier = 0.00540684
vernier = 0.00270342
vernier = 0.00135171
Gmin = 3.77602e-012
vernier = 0.00180228
vernier = 0.00240304
Gmin = 3.75679e-012
vernier = 0.00320405
vernier = 0.00427207
Gmin = 3.72634e-012
vernier = 0.00569609
vernier = 0.00284804
vernier = 0.00142402
Gmin = 3.7065e-012
vernier = 0.0018987
vernier = 0.00253159
Gmin = 3.68866e-012
vernier = 0.00337546
Gmin = 3.66076e-012
vernier = 0.00450061
vernier = 0.00600081
vernier = 0.0030004
vernier = 0.0015002
Gmin = 3.63478e-012
vernier = 0.00200027
Gmin = 3.61846e-012
vernier = 0.00266702
vernier = 0.00355603
Gmin = 3.59123e-012
vernier = 0.00474137
vernier = 0.00632183
vernier = 0.00316092
Gmin = 3.55947e-012
vernier = 0.00158046
vernier = 0.00210728
Gmin = 3.54497e-012
vernier = 0.0028097
vernier = 0.00374627
Gmin = 3.51975e-012
vernier = 0.00499502
vernier = 0.00249751
vernier = 0.00124876
Gmin = 3.50331e-012
vernier = 0.00166501
vernier = 0.00222001
Gmin = 3.48852e-012
vernier = 0.00296001
Gmin = 3.46537e-012
vernier = 0.00394668
vernier = 0.00526224
vernier = 0.00263112
vernier = 0.00131556
Gmin = 3.4438e-012
vernier = 0.00175408
Gmin = 3.43023e-012
vernier = 0.00233877
vernier = 0.00311836
Gmin = 3.40759e-012
vernier = 0.00415781
vernier = 0.00554375
vernier = 0.00277188
Gmin = 3.38114e-012
vernier = 0.00138594
vernier = 0.00184792
Gmin = 3.36906e-012
vernier = 0.00246389
vernier = 0.00328518
Gmin = 3.34803e-012
vernier = 0.00438024
Gmin = 3.31521e-012
vernier = 0.00584032
vernier = 0.00292016
vernier = 0.00146008
vernier = 0.00194677
Gmin = 3.30595e-012
vernier = 0.0025957
Gmin = 3.2867e-012
vernier = 0.00346093
vernier = 0.00461457
Gmin = 3.25465e-012
vernier = 0.00615276
vernier = 0.00307638
vernier = 0.00153819
Gmin = 3.24092e-012
vernier = 0.00205092
vernier = 0.00273456
Gmin = 3.22214e-012
vernier = 0.00364608
vernier = 0.00486144
Gmin = 3.19244e-012
vernier = 0.00648191
vernier = 0.00324096
vernier = 0.00162048
Gmin = 3.1731e-012
vernier = 0.00216064
vernier = 0.00288085
Gmin = 3.15573e-012
vernier = 0.00384113
Gmin = 3.12859e-012
vernier = 0.00512151
vernier = 0.00256075
vernier = 0.00128038
vernier = 0.00170717
Gmin = 3.12092e-012
vernier = 0.00227622
Gmin = 3.10498e-012
vernier = 0.00303496
vernier = 0.00404662
Gmin = 3.07841e-012
vernier = 0.00539549
vernier = 0.00269774
vernier = 0.00134887
Gmin = 3.06701e-012
vernier = 0.0017985
vernier = 0.00239799
Gmin = 3.05143e-012
vernier = 0.00319732
vernier = 0.0042631
Gmin = 3.02674e-012
vernier = 0.00568413
vernier = 0.00284207
vernier = 0.00142103
Gmin = 3.01066e-012
vernier = 0.00189471
vernier = 0.00252628
Gmin = 2.9962e-012
vernier = 0.00336837
Gmin = 2.97359e-012
vernier = 0.00449116
vernier = 0.00598821
vernier = 0.00299411
vernier = 0.00149705
Gmin = 2.95253e-012
vernier = 0.00199607
Gmin = 2.9393e-012
vernier = 0.00266143
vernier = 0.00354857
Gmin = 2.91723e-012
vernier = 0.00473142
vernier = 0.00630856
vernier = 0.00315428
Gmin = 2.89148e-012
vernier = 0.00157714
vernier = 0.00210285
Gmin = 2.87973e-012
vernier = 0.0028038
vernier = 0.0037384
Gmin = 2.85928e-012
vernier = 0.00498454
vernier = 0.00249227
vernier = 0.00124613
Gmin = 2.84596e-012
vernier = 0.00166151
vernier = 0.00221535
Gmin = 2.83397e-012
vernier = 0.0029538
Gmin = 2.8152e-012
vernier = 0.0039384
vernier = 0.00525119
vernier = 0.0026256
vernier = 0.0013128
Gmin = 2.79771e-012
vernier = 0.0017504
Gmin = 2.78672e-012
vernier = 0.00233386
vernier = 0.00311182
Gmin = 2.76836e-012
vernier = 0.00414909
vernier = 0.00553211
vernier = 0.00276606
Gmin = 2.74691e-012
vernier = 0.00138303
vernier = 0.00184404
Gmin = 2.73712e-012
vernier = 0.00245872
vernier = 0.00327829
Gmin = 2.72007e-012
vernier = 0.00437105
Gmin = 2.69347e-012
vernier = 0.00582806
vernier = 0.00291403
vernier = 0.00145702
vernier = 0.00194269
Gmin = 2.68596e-012
vernier = 0.00259025
Gmin = 2.67035e-012
vernier = 0.00345366
vernier = 0.00460489
Gmin = 2.64436e-012
vernier = 0.00613985
vernier = 0.00306992
vernier = 0.00153496
Gmin = 2.63323e-012
vernier = 0.00204661
vernier = 0.00272882
Gmin = 2.61801e-012
vernier = 0.00363842
vernier = 0.00485123
vernier = 0.00242562
Gmin = 2.60022e-012
vernier = 0.00121281
vernier = 0.00161708
Gmin = 2.59208e-012
vernier = 0.0021561
vernier = 0.0028748
Gmin = 2.57792e-012
vernier = 0.00383307
Gmin = 2.55579e-012
vernier = 0.00511076
vernier = 0.00255538
vernier = 0.00127769
vernier = 0.00170358
Gmin = 2.54954e-012
vernier = 0.00227145
Gmin = 2.53655e-012
vernier = 0.00302859
vernier = 0.00403812
Gmin = 2.51489e-012
vernier = 0.00538416
vernier = 0.00269208
vernier = 0.00134604
Gmin = 2.5056e-012
vernier = 0.00179472
vernier = 0.00239296
Gmin = 2.49289e-012
vernier = 0.00319061
vernier = 0.00425415
Gmin = 2.47277e-012
vernier = 0.0056722
vernier = 0.0028361
vernier = 0.00141805
Gmin = 2.45966e-012
vernier = 0.00189073
vernier = 0.00252098
Gmin = 2.44787e-012
vernier = 0.0033613
Gmin = 2.42943e-012
vernier = 0.00448173
vernier = 0.00597564
vernier = 0.00298782
vernier = 0.00149391
Gmin = 2.41226e-012
vernier = 0.00199188
Gmin = 2.40148e-012
vernier = 0.00265584
vernier = 0.00354112
Gmin = 2.38348e-012
vernier = 0.00472149
vernier = 0.00236074
vernier = 0.00118037
Gmin = 2.37576e-012
vernier = 0.00157383
vernier = 0.00209844
Gmin = 2.36519e-012
vernier = 0.00279792
vernier = 0.00373056
Gmin = 2.34844e-012
vernier = 0.00497407
vernier = 0.00248704
vernier = 0.00124352
Gmin = 2.33752e-012
vernier = 0.00165802
vernier = 0.0022107
Gmin = 2.32769e-012
vernier = 0.0029476
Gmin = 2.31231e-012
vernier = 0.00393013
vernier = 0.00524017
vernier = 0.00262008
vernier = 0.00131004
Gmin = 2.29797e-012
vernier = 0.00174672
Gmin = 2.28896e-012
vernier = 0.00232896
vernier = 0.00310528
Gmin = 2.27391e-012
vernier = 0.00414038
vernier = 0.0055205
vernier = 0.00276025
Gmin = 2.25633e-012
vernier = 0.00138013
vernier = 0.00184017
Gmin = 2.24831e-012
vernier = 0.00245355
vernier = 0.00327141
Gmin = 2.23433e-012
vernier = 0.00436187
Gmin = 2.21252e-012
vernier = 0.00581583
vernier = 0.00290791
vernier = 0.00145396
vernier = 0.00193861
Gmin = 2.20637e-012
vernier = 0.00258481
Gmin = 2.19358e-012
vernier = 0.00344641
vernier = 0.00459522
Gmin = 2.17227e-012
vernier = 0.00612696
vernier = 0.00306348
vernier = 0.00153174
Gmin = 2.16314e-012
vernier = 0.00204232
vernier = 0.00272309
Gmin = 2.15067e-012
vernier = 0.00363079
vernier = 0.00484105
vernier = 0.00242052
Gmin = 2.13608e-012
vernier = 0.00121026
vernier = 0.00161368
Gmin = 2.12941e-012
vernier = 0.00215158
vernier = 0.00286877
Gmin = 2.1178e-012
vernier = 0.00382502
Gmin = 2.09966e-012
vernier = 0.00510003
vernier = 0.00255001
vernier = 0.00127501
vernier = 0.00170001
Gmin = 2.09454e-012
vernier = 0.00226668
Gmin = 2.08389e-012
vernier = 0.00302224
vernier = 0.00402965
Gmin = 2.06613e-012
vernier = 0.00537286
vernier = 0.00268643
vernier = 0.00134322
Gmin = 2.05851e-012
vernier = 0.00179095
vernier = 0.00238794
Gmin = 2.0481e-012
vernier = 0.00318392
vernier = 0.00424522
Gmin = 2.0316e-012
vernier = 0.00566029
vernier = 0.00283015
vernier = 0.00141507
Gmin = 2.02085e-012
vernier = 0.00188676
vernier = 0.00251568
Gmin = 2.01118e-012
vernier = 0.00335424
Gmin = 1.99607e-012
vernier = 0.00447232
vernier = 0.0059631
vernier = 0.00298155
vernier = 0.00149077
Gmin = 1.98199e-012
vernier = 0.0019877
Gmin = 1.97315e-012
vernier = 0.00265026
vernier = 0.00353368
Gmin = 1.95839e-012
vernier = 0.00471158
vernier = 0.00235579
vernier = 0.00117789
Gmin = 1.95206e-012
vernier = 0.00157053
vernier = 0.00209403
Gmin = 1.9434e-012
vernier = 0.00279204
vernier = 0.00372273
Gmin = 1.92966e-012
vernier = 0.00496363
vernier = 0.00248182
vernier = 0.00124091
Gmin = 1.9207e-012
vernier = 0.00165454
vernier = 0.00220606
Gmin = 1.91265e-012
vernier = 0.00294141
Gmin = 1.90003e-012
vernier = 0.00392188
vernier = 0.00522917
vernier = 0.00261458
vernier = 0.00130729
Gmin = 1.88828e-012
vernier = 0.00174306
Gmin = 1.88089e-012
vernier = 0.00232407
vernier = 0.00309876
Gmin = 1.86855e-012
vernier = 0.00413169
vernier = 0.00550891
vernier = 0.00275446
Gmin = 1.85413e-012
vernier = 0.00137723
vernier = 0.0018363
Gmin = 1.84755e-012
vernier = 0.0024484
vernier = 0.00326454
Gmin = 1.83609e-012
vernier = 0.00435272
Gmin = 1.81821e-012
vernier = 0.00580362
vernier = 0.00290181
vernier = 0.00145091
vernier = 0.00193454
Gmin = 1.81316e-012
vernier = 0.00257939
Gmin = 1.80267e-012
vernier = 0.00343918
vernier = 0.00458557
Gmin = 1.7852e-012
vernier = 0.0061141
vernier = 0.00305705
vernier = 0.00152852
Gmin = 1.77771e-012
vernier = 0.00203803
vernier = 0.00271737
Gmin = 1.76748e-012
vernier = 0.00362316
vernier = 0.00483089
vernier = 0.00241544
Gmin = 1.75552e-012
vernier = 0.00120772
vernier = 0.00161029
Gmin = 1.75005e-012
vernier = 0.00214706
vernier = 0.00286274
Gmin = 1.74053e-012
vernier = 0.00381699
Gmin = 1.72565e-012
vernier = 0.00508932
vernier = 0.00254466
vernier = 0.00127233
vernier = 0.00169644
Gmin = 1.72145e-012
vernier = 0.00226192
Gmin = 1.71271e-012
vernier = 0.00301589
vernier = 0.00402119
Gmin = 1.69815e-012
vernier = 0.00536158
vernier = 0.00268079
vernier = 0.0013404
Gmin = 1.6919e-012
vernier = 0.00178719
vernier = 0.00238292
Gmin = 1.68336e-012
vernier = 0.00317723
vernier = 0.00423631
Gmin = 1.66982e-012
vernier = 0.00564841
vernier = 0.0028242
vernier = 0.0014121
Gmin = 1.66101e-012
vernier = 0.0018828
vernier = 0.0025104
Gmin = 1.65308e-012
vernier = 0.0033472
Gmin = 1.64068e-012
vernier = 0.00446294
vernier = 0.00595058
vernier = 0.00297529
vernier = 0.00148765
Gmin = 1.62914e-012
vernier = 0.00198353
Gmin = 1.62188e-012
vernier = 0.0026447
vernier = 0.00352627
Gmin = 1.60978e-012
vernier = 0.00470169
vernier = 0.00235084
vernier = 0.00117542
Gmin = 1.60459e-012
vernier = 0.00156723
vernier = 0.00208964
Gmin = 1.59748e-012
vernier = 0.00278618
vernier = 0.00371491
Gmin = 1.58621e-012
vernier = 0.00495321
vernier = 0.00247661
vernier = 0.0012383
Gmin = 1.57886e-012
vernier = 0.00165107
vernier = 0.00220143
Gmin = 1.57225e-012
vernier = 0.00293523
Gmin = 1.56191e-012
vernier = 0.00391365
vernier = 0.00521819
vernier = 0.0026091
vernier = 0.00130455
Gmin = 1.55226e-012
vernier = 0.0017394
Gmin = 1.5462e-012
vernier = 0.0023192
vernier = 0.00309226
Gmin = 1.53608e-012
vernier = 0.00412301
vernier = 0.00549735
vernier = 0.00274867
Gmin = 1.52426e-012
vernier = 0.00137434
vernier = 0.00183245
Gmin = 1.51885e-012
vernier = 0.00244326
vernier = 0.00325769
Gmin = 1.50945e-012
vernier = 0.00434358
Gmin = 1.49478e-012
vernier = 0.00579144
vernier = 0.00289572
vernier = 0.00144786
vernier = 0.00193048
Gmin = 1.49064e-012
vernier = 0.00257397
Gmin = 1.48203e-012
vernier = 0.00343196
vernier = 0.00457595
Gmin = 1.4677e-012
vernier = 0.00610126
vernier = 0.00305063
vernier = 0.00152532
Gmin = 1.46156e-012
vernier = 0.00203375
vernier = 0.00271167
Gmin = 1.45316e-012
vernier = 0.00361556
vernier = 0.00482074
vernier = 0.00241037
Gmin = 1.44335e-012
vernier = 0.00120519
vernier = 0.00160691
Gmin = 1.43886e-012
vernier = 0.00214255
vernier = 0.00285674
Gmin = 1.43105e-012
vernier = 0.00380898
Gmin = 1.41885e-012
vernier = 0.00507864
vernier = 0.00253932
vernier = 0.00126966
vernier = 0.00169288
Gmin = 1.4154e-012
vernier = 0.00225717
Gmin = 1.40823e-012
vernier = 0.00300956
vernier = 0.00401275
Gmin = 1.39628e-012
vernier = 0.00535033
vernier = 0.00267516
vernier = 0.00133758
Gmin = 1.39115e-012
vernier = 0.00178344
vernier = 0.00237792
Gmin = 1.38414e-012
vernier = 0.00317056
vernier = 0.00422742
Gmin = 1.37304e-012
vernier = 0.00563655
vernier = 0.00281828
vernier = 0.00140914
Gmin = 1.3658e-012
vernier = 0.00187885
vernier = 0.00250513
Gmin = 1.3593e-012
vernier = 0.00334018
Gmin = 1.34913e-012
vernier = 0.00445357
vernier = 0.00593809
vernier = 0.00296904
vernier = 0.00148452
Gmin = 1.33965e-012
vernier = 0.00197936
Gmin = 1.3337e-012
vernier = 0.00263915
vernier = 0.00351886
Gmin = 1.32377e-012
vernier = 0.00469182
vernier = 0.00625576
vernier = 0.00312788
Gmin = 1.31218e-012
vernier = 0.00156394
vernier = 0.00208525
Gmin = 1.30689e-012
vernier = 0.00278033
vernier = 0.00370711
Gmin = 1.29769e-012
vernier = 0.00494281
vernier = 0.00247141
vernier = 0.0012357
Gmin = 1.29169e-012
vernier = 0.0016476
vernier = 0.00219681
Gmin = 1.2863e-012
vernier = 0.00292907
Gmin = 1.27785e-012
vernier = 0.00390543
vernier = 0.00520724
vernier = 0.00260362
vernier = 0.00130181
Gmin = 1.26998e-012
vernier = 0.00173575
Gmin = 1.26503e-012
vernier = 0.00231433
vernier = 0.00308577
Gmin = 1.25676e-012
vernier = 0.00411436
vernier = 0.00548581
vernier = 0.0027429
Gmin = 1.24711e-012
vernier = 0.00137145
vernier = 0.0018286
Gmin = 1.2427e-012
vernier = 0.00243814
vernier = 0.00325085
Gmin = 1.23502e-012
vernier = 0.00433446
Gmin = 1.22304e-012
vernier = 0.00577928
vernier = 0.00288964
vernier = 0.00144482
vernier = 0.00192643
Gmin = 1.21966e-012
vernier = 0.00256857
Gmin = 1.21264e-012
vernier = 0.00342476
vernier = 0.00456634
Gmin = 1.20093e-012
vernier = 0.00608845
vernier = 0.00304423
vernier = 0.00152211
Gmin = 1.19592e-012
vernier = 0.00202948
vernier = 0.00270598
Gmin = 1.18906e-012
vernier = 0.00360797
vernier = 0.00481062
Gmin = 1.17821e-012
vernier = 0.00641416
vernier = 0.00320708
vernier = 0.00160354
Gmin = 1.17115e-012
vernier = 0.00213805
vernier = 0.00285074
Gmin = 1.16481e-012
vernier = 0.00380098
Gmin = 1.15489e-012
vernier = 0.00506798
vernier = 0.00253399
vernier = 0.00126699
vernier = 0.00168933
Gmin = 1.15209e-012
vernier = 0.00225243
Gmin = 1.14627e-012
vernier = 0.00300324
vernier = 0.00400432
Gmin = 1.13656e-012
vernier = 0.0053391
vernier = 0.00266955
vernier = 0.00133477
Gmin = 1.1324e-012
vernier = 0.0017797
vernier = 0.00237293
Gmin = 1.12671e-012
vernier = 0.00316391
vernier = 0.00421854
Gmin = 1.11769e-012
vernier = 0.00562472
vernier = 0.00281236
vernier = 0.00140618
Gmin = 1.11181e-012
vernier = 0.00187491
vernier = 0.00249987
Gmin = 1.10653e-012
vernier = 0.00333316
Gmin = 1.09826e-012
vernier = 0.00444422
vernier = 0.00592562
vernier = 0.00296281
vernier = 0.00148141
Gmin = 1.09056e-012
vernier = 0.00197521
Gmin = 1.08573e-012
vernier = 0.00263361
vernier = 0.00351148
Gmin = 1.07766e-012
vernier = 0.00468197
vernier = 0.00624262
vernier = 0.00312131
Gmin = 1.06825e-012
vernier = 0.00156066
vernier = 0.00208087
Gmin = 1.06395e-012
vernier = 0.0027745
vernier = 0.00369933
Gmin = 1.05648e-012
vernier = 0.00493244
Gmin = 1.04482e-012
vernier = 0.00657658
vernier = 0.00328829
vernier = 0.00164415
vernier = 0.00219219
Gmin = 1.04154e-012
vernier = 0.00292292
Gmin = 1.03471e-012
vernier = 0.00389723
vernier = 0.00519631
vernier = 0.00259815
vernier = 0.00129908
Gmin = 1.02835e-012
vernier = 0.0017321
Gmin = 1.02435e-012
vernier = 0.00230947
vernier = 0.00307929
Gmin = 1.01767e-012
vernier = 0.00410572
vernier = 0.00547429
vernier = 0.00273715
Gmin = 1.00987e-012
vernier = 0.00136857
vernier = 0.00182476
Gmin = 1.00631e-012
vernier = 0.00243302
vernier = 0.00324402
Gmin = 1.00011e-012
vernier = 0.00432536
Gmin = 9.90425e-013
vernier = 0.00576715
vernier = 0.00288357
vernier = 0.00144179
vernier = 0.00192238
Gmin = 9.87692e-013
vernier = 0.00256318
Gmin = 9.82014e-013
vernier = 0.00341757
vernier = 0.00455676
Gmin = 9.72555e-013
vernier = 0.00607567
vernier = 0.00303784
vernier = 0.00151892
Gmin = 9.68503e-013
vernier = 0.00202522
vernier = 0.0027003
Gmin = 9.62963e-013
vernier = 0.0036004
vernier = 0.00480053
Gmin = 9.54195e-013
vernier = 0.0064007
vernier = 0.00320035
vernier = 0.00160018
Gmin = 9.4849e-013
vernier = 0.00213357
vernier = 0.00284475
Gmin = 9.43362e-013
vernier = 0.003793
Gmin = 9.35348e-013
vernier = 0.00505734
vernier = 0.00674312
vernier = 0.00337156
vernier = 0.00168578
Gmin = 9.27893e-013
vernier = 0.0022477
Gmin = 9.23213e-013
vernier = 0.00299694
vernier = 0.00399592
Gmin = 9.15411e-013
vernier = 0.00532789
vernier = 0.00710385
vernier = 0.00355192
Gmin = 9.06317e-013
vernier = 0.00177596
vernier = 0.00236795
Gmin = 9.0217e-013
vernier = 0.00315727
vernier = 0.00420969
Gmin = 8.94962e-013
vernier = 0.00561291
vernier = 0.00280646
vernier = 0.00140323
Gmin = 8.90267e-013
vernier = 0.00187097
vernier = 0.00249463
Gmin = 8.86045e-013
vernier = 0.00332617
Gmin = 8.79441e-013
vernier = 0.00443489
vernier = 0.00591318
vernier = 0.00295659
vernier = 0.0014783
Gmin = 8.7329e-013
vernier = 0.00197106
Gmin = 8.69427e-013
vernier = 0.00262808
vernier = 0.00350411
Gmin = 8.62979e-013
vernier = 0.00467214
vernier = 0.00622952
vernier = 0.00311476
Gmin = 8.55457e-013
vernier = 0.00155738
vernier = 0.00207651
Gmin = 8.52023e-013
vernier = 0.00276867
vernier = 0.00369156
Gmin = 8.4605e-013
vernier = 0.00492209
Gmin = 8.36737e-013
vernier = 0.00656278
vernier = 0.00328139
vernier = 0.00164069
vernier = 0.00218759
Gmin = 8.34111e-013
vernier = 0.00291679
Gmin = 8.28656e-013
vernier = 0.00388905
vernier = 0.0051854
Gmin = 8.19581e-013
vernier = 0.00691386
vernier = 0.00345693
vernier = 0.00172847
Gmin = 8.15696e-013
vernier = 0.00230462
vernier = 0.00307283
Gmin = 8.10389e-013
vernier = 0.0040971
vernier = 0.0054628
Gmin = 8.01998e-013
vernier = 0.00728373
vernier = 0.00364187
vernier = 0.00182093
Gmin = 7.96544e-013
vernier = 0.00242791
vernier = 0.00323721
Gmin = 7.91645e-013
vernier = 0.00431628
Gmin = 7.83998e-013
vernier = 0.00575504
vernier = 0.00287752
vernier = 0.00143876
vernier = 0.00191835
Gmin = 7.81839e-013
vernier = 0.0025578
Gmin = 7.77354e-013
vernier = 0.00341039
vernier = 0.00454719
Gmin = 7.69882e-013
vernier = 0.00606292
vernier = 0.00303146
vernier = 0.00151573
Gmin = 7.66681e-013
vernier = 0.00202097
vernier = 0.00269463
Gmin = 7.62305e-013
vernier = 0.00359284
vernier = 0.00479045
Gmin = 7.55379e-013
vernier = 0.00638726
vernier = 0.00319363
vernier = 0.00159682
Gmin = 7.50871e-013
vernier = 0.00212909
vernier = 0.00283878
Gmin = 7.4682e-013
vernier = 0.00378504
Gmin = 7.4049e-013
vernier = 0.00504672
vernier = 0.00672896
vernier = 0.00336448
vernier = 0.00168224
Gmin = 7.346e-013
vernier = 0.00224299
Gmin = 7.30903e-013
vernier = 0.00299065
vernier = 0.00398753
Gmin = 7.24738e-013
vernier = 0.0053167
vernier = 0.00708894
vernier = 0.00354447
Gmin = 7.17554e-013
vernier = 0.00177223
vernier = 0.00236298
Gmin = 7.14277e-013
vernier = 0.00315064
vernier = 0.00420085
Gmin = 7.08582e-013
vernier = 0.00560113
Gmin = 6.99714e-013
vernier = 0.00746817
vernier = 0.00373409
vernier = 0.00186704
vernier = 0.00248939
Gmin = 6.97215e-013
vernier = 0.00331919
Gmin = 6.9203e-013
vernier = 0.00442558
vernier = 0.00590077
Gmin = 6.83412e-013
vernier = 0.00786769
vernier = 0.00393385
vernier = 0.00196692
Gmin = 6.79727e-013
vernier = 0.00262256
vernier = 0.00349675
Gmin = 6.74697e-013
vernier = 0.00466233
vernier = 0.00621644
vernier = 0.00310822
Gmin = 6.68828e-013
vernier = 0.00155411
vernier = 0.00207215
Gmin = 6.66149e-013
vernier = 0.00276286
vernier = 0.00368382
Gmin = 6.61489e-013
vernier = 0.00491175
Gmin = 6.54223e-013
vernier = 0.006549
vernier = 0.0032745
vernier = 0.00163725
vernier = 0.002183
Gmin = 6.52173e-013
vernier = 0.00291067
Gmin = 6.47918e-013
vernier = 0.00388089
vernier = 0.00517451
Gmin = 6.40836e-013
vernier = 0.00689935
vernier = 0.00344968
vernier = 0.00172484
Gmin = 6.37805e-013
vernier = 0.00229978
vernier = 0.00306638
Gmin = 6.33664e-013
vernier = 0.0040885
vernier = 0.00545133
Gmin = 6.27117e-013
vernier = 0.00726844
vernier = 0.00363422
vernier = 0.00181711
Gmin = 6.22861e-013
vernier = 0.00242281
vernier = 0.00323042
Gmin = 6.19038e-013
vernier = 0.00430722
Gmin = 6.13071e-013
vernier = 0.00574296
vernier = 0.00765728
vernier = 0.00382864
vernier = 0.00191432
Gmin = 6.07525e-013
vernier = 0.00255243
Gmin = 6.04047e-013
vernier = 0.00340323
vernier = 0.00453764
Gmin = 5.98254e-013
vernier = 0.00605019
vernier = 0.00806692
vernier = 0.00403346
Gmin = 5.9151e-013
vernier = 0.00201673
vernier = 0.00268897
Gmin = 5.88437e-013
vernier = 0.0035853
vernier = 0.00478039
Gmin = 5.83102e-013
vernier = 0.00637386
Gmin = 5.74805e-013
vernier = 0.00849847
vernier = 0.00424924
vernier = 0.00212462
vernier = 0.00283282
Gmin = 5.7247e-013
vernier = 0.0037771
Gmin = 5.67628e-013
vernier = 0.00503613
vernier = 0.00671484
vernier = 0.00335742
vernier = 0.00167871
Gmin = 5.63122e-013
vernier = 0.00223828
Gmin = 5.60294e-013
vernier = 0.00298437
vernier = 0.00397916
Gmin = 5.55578e-013
vernier = 0.00530554
vernier = 0.00707406
vernier = 0.00353703
Gmin = 5.50082e-013
vernier = 0.00176851
vernier = 0.00235802
Gmin = 5.47576e-013
vernier = 0.00314402
vernier = 0.00419203
Gmin = 5.43219e-013
vernier = 0.00558937
Gmin = 5.36435e-013
vernier = 0.00745249
vernier = 0.00372625
vernier = 0.00186312
vernier = 0.00248416
Gmin = 5.34523e-013
vernier = 0.00331222
Gmin = 5.30556e-013
vernier = 0.00441629
vernier = 0.00588839
Gmin = 5.23962e-013
vernier = 0.00785118
vernier = 0.00392559
vernier = 0.00196279
Gmin = 5.21143e-013
vernier = 0.00261706
vernier = 0.00348941
Gmin = 5.17295e-013
vernier = 0.00465255
vernier = 0.00620339
Gmin = 5.11217e-013
vernier = 0.00827119
vernier = 0.00413559
vernier = 0.0020678
Gmin = 5.07271e-013
vernier = 0.00275706
vernier = 0.00367608
Gmin = 5.0373e-013
vernier = 0.00490144
Gmin = 4.98209e-013
vernier = 0.00653525
vernier = 0.00871367
vernier = 0.00435684
vernier = 0.00217842
Gmin = 4.93084e-013
vernier = 0.00290456
Gmin = 4.89873e-013
vernier = 0.00387274
vernier = 0.00516365
Gmin = 4.8453e-013
vernier = 0.00688487
vernier = 0.00917982
vernier = 0.00458991
Gmin = 4.78321e-013
vernier = 0.00229496
vernier = 0.00305994
Gmin = 4.75494e-013
vernier = 0.00407992
vernier = 0.00543989
Gmin = 4.70591e-013
vernier = 0.00725319
Gmin = 4.6298e-013
vernier = 0.00967091
vernier = 0.00483546
vernier = 0.00241773
vernier = 0.00322364
Gmin = 4.6084e-013
vernier = 0.00429818
Gmin = 4.56407e-013
vernier = 0.00573091
vernier = 0.00764121
Gmin = 4.49062e-013
vernier = 0.0101883
vernier = 0.00509414
vernier = 0.00254707
Gmin = 4.4593e-013
vernier = 0.00339609
vernier = 0.00452812
Gmin = 4.41662e-013
vernier = 0.00603749
vernier = 0.00804999
vernier = 0.00402499
Gmin = 4.36694e-013
vernier = 0.0020125
vernier = 0.00268333
Gmin = 4.3443e-013
vernier = 0.00357777
vernier = 0.00477036
Gmin = 4.30499e-013
vernier = 0.00636048
Gmin = 4.24387e-013
vernier = 0.00848063
vernier = 0.00424032
vernier = 0.00212016
vernier = 0.00282688
Gmin = 4.22666e-013
vernier = 0.00376917
Gmin = 4.19098e-013
vernier = 0.00502556
vernier = 0.00670074
Gmin = 4.13177e-013
vernier = 0.00893432
vernier = 0.00446716
vernier = 0.00223358
Gmin = 4.10649e-013
vernier = 0.00297811
vernier = 0.00397081
Gmin = 4.072e-013
vernier = 0.00529441
vernier = 0.00705921
Gmin = 4.01761e-013
vernier = 0.00941227
vernier = 0.00470614
vernier = 0.00235307
Gmin = 3.98234e-013
vernier = 0.00313742
vernier = 0.00418323
Gmin = 3.95072e-013
vernier = 0.00557764
Gmin = 3.90148e-013
vernier = 0.00743685
vernier = 0.0099158
vernier = 0.0049579
vernier = 0.00247895
Gmin = 3.85585e-013
vernier = 0.00330527
Gmin = 3.82729e-013
vernier = 0.00440702
vernier = 0.00587602
Gmin = 3.77983e-013
vernier = 0.0078347
vernier = 0.0104463
vernier = 0.00522313
Gmin = 3.72476e-013
vernier = 0.00261157
vernier = 0.00348209
Gmin = 3.69973e-013
vernier = 0.00464278
vernier = 0.00619037
Gmin = 3.65635e-013
vernier = 0.00825383
Gmin = 3.58914e-013
vernier = 0.0110051
vernier = 0.00550255
vernier = 0.00275128
vernier = 0.00366837
Gmin = 3.57027e-013
vernier = 0.00489115
Gmin = 3.53121e-013
vernier = 0.00652154
vernier = 0.00869538
Gmin = 3.46662e-013
vernier = 0.0115938
vernier = 0.00579692
vernier = 0.00289846
Gmin = 3.43912e-013
vernier = 0.00386461
vernier = 0.00515281
Gmin = 3.40169e-013
vernier = 0.00687042
vernier = 0.00916055
Gmin = 3.34286e-013
vernier = 0.0122141
vernier = 0.00610703
vernier = 0.00305352
Gmin = 3.30484e-013
vernier = 0.00407135
vernier = 0.00542847
Gmin = 3.27083e-013
vernier = 0.00723796
Gmin = 3.21804e-013
vernier = 0.00965061
vernier = 0.0128675
vernier = 0.00643374
vernier = 0.00321687
Gmin = 3.1693e-013
vernier = 0.00428916
Gmin = 3.13888e-013
vernier = 0.00571888
vernier = 0.00762517
Gmin = 3.08847e-013
vernier = 0.0101669
vernier = 0.00508344
vernier = 0.00254172
Gmin = 3.06697e-013
vernier = 0.00338896
vernier = 0.00451861
Gmin = 3.03767e-013
vernier = 0.00602482
vernier = 0.00803309
Gmin = 2.99155e-013
vernier = 0.0107108
vernier = 0.00535539
vernier = 0.0026777
Gmin = 2.96168e-013
vernier = 0.00357026
vernier = 0.00476034
Gmin = 2.93494e-013
vernier = 0.00634712
Gmin = 2.89336e-013
vernier = 0.00846283
vernier = 0.0112838
vernier = 0.00564189
vernier = 0.00282094
Gmin = 2.85489e-013
vernier = 0.00376126
Gmin = 2.83084e-013
vernier = 0.00501501
vernier = 0.00668667
Gmin = 2.79093e-013
vernier = 0.00891556
vernier = 0.0118874
vernier = 0.00594371
Gmin = 2.74471e-013
vernier = 0.00297185
vernier = 0.00396247
Gmin = 2.72373e-013
vernier = 0.00528329
vernier = 0.00704439
Gmin = 2.68742e-013
vernier = 0.00939252
Gmin = 2.63128e-013
vernier = 0.0125234
vernier = 0.00626168
vernier = 0.00313084
vernier = 0.00417445
Gmin = 2.61555e-013
vernier = 0.00556593
Gmin = 2.58302e-013
vernier = 0.00742124
vernier = 0.00989498
Gmin = 2.52933e-013
vernier = 0.0131933
vernier = 0.00659665
vernier = 0.00329833
Gmin = 2.50651e-013
vernier = 0.00439777
vernier = 0.00586369
Gmin = 2.47549e-013
vernier = 0.00781825
vernier = 0.0104243
Gmin = 2.42683e-013
vernier = 0.0138991
vernier = 0.00694955
vernier = 0.00347478
Gmin = 2.39545e-013
vernier = 0.00463303
vernier = 0.00617738
Gmin = 2.36743e-013
vernier = 0.0082365
Gmin = 2.324e-013
vernier = 0.010982
vernier = 0.0146427
vernier = 0.00732133
vernier = 0.00366067
Gmin = 2.28399e-013
vernier = 0.00488089
Gmin = 2.25906e-013
vernier = 0.00650785
vernier = 0.00867713
Gmin = 2.21782e-013
vernier = 0.0115695
vernier = 0.015426
vernier = 0.007713
Gmin = 2.17029e-013
vernier = 0.0038565
vernier = 0.005142
Gmin = 2.14879e-013
vernier = 0.00685599
vernier = 0.00914132
Gmin = 2.11171e-013
vernier = 0.0121884
Gmin = 2.05466e-013
vernier = 0.0162512
vernier = 0.00812562
vernier = 0.00406281
vernier = 0.00541708
Gmin = 2.03873e-013
vernier = 0.00722277
Gmin = 2.00589e-013
vernier = 0.00963035
vernier = 0.0128405
Gmin = 1.95197e-013
vernier = 0.0171206
vernier = 0.00856031
vernier = 0.00428015
Gmin = 1.92916e-013
vernier = 0.00570687
vernier = 0.00760916
Gmin = 1.89824e-013
vernier = 0.0101455
vernier = 0.0135274
Gmin = 1.84998e-013
vernier = 0.0180365
vernier = 0.00901826
vernier = 0.00450913
Gmin = 1.81901e-013
vernier = 0.00601217
vernier = 0.00801622
Gmin = 1.79144e-013
vernier = 0.0106883
Gmin = 1.74893e-013
vernier = 0.0142511
vernier = 0.0190014
vernier = 0.0095007
vernier = 0.00475035
Gmin = 1.70997e-013
vernier = 0.0063338
Gmin = 1.68579e-013
vernier = 0.00844507
vernier = 0.0112601
Gmin = 1.64598e-013
vernier = 0.0150134
vernier = 0.0200179
vernier = 0.010009
Gmin = 1.60038e-013
vernier = 0.00500448
vernier = 0.00667264
Gmin = 1.57983e-013
vernier = 0.00889685
vernier = 0.0118625
Gmin = 1.54455e-013
vernier = 0.0158166
Gmin = 1.49065e-013
vernier = 0.0210888
vernier = 0.0105444
vernier = 0.0052722
vernier = 0.0070296
Gmin = 1.47567e-013
vernier = 0.0093728
Gmin = 1.44491e-013
vernier = 0.0124971
vernier = 0.0166627
Gmin = 1.39473e-013
vernier = 0.022217
vernier = 0.0111085
vernier = 0.00555425
Gmin = 1.37362e-013
vernier = 0.00740566
vernier = 0.00987421
Gmin = 1.34513e-013
vernier = 0.0131656
vernier = 0.0175541
Gmin = 1.30094e-013
vernier = 0.0234055
vernier = 0.0117028
vernier = 0.00585138
Gmin = 1.27275e-013
vernier = 0.00780184
vernier = 0.0104024
Gmin = 1.24779e-013
vernier = 0.0138699
Gmin = 1.20951e-013
vernier = 0.0184932
vernier = 0.0246576
vernier = 0.0123288
vernier = 0.00616441
Gmin = 1.17469e-013
vernier = 0.00821921
Gmin = 1.15318e-013
vernier = 0.0109589
vernier = 0.0146119
Gmin = 1.11798e-013
vernier = 0.0194826
vernier = 0.0259767
vernier = 0.0129884
Gmin = 1.07797e-013
vernier = 0.00649418
vernier = 0.00865891
Gmin = 1.06005e-013
vernier = 0.0115452
vernier = 0.0153936
Gmin = 1.02944e-013
vernier = 0.0205248
Terminal Gmin changed to 1e-014
vernier = 0.0102624
Gmin = 1.00086e-013
vernier = 0.0136832
Gmin = 9.70558e-014
vernier = 0.0182443
vernier = 0.0243257
Gmin = 9.21788e-014
vernier = 0.0324342
vernier = 0.0162171
vernier = 0.00810856
Gmin = 9.01503e-014
vernier = 0.0108114
vernier = 0.0144152
Gmin = 8.74348e-014
vernier = 0.0192203
vernier = 0.025627
Gmin = 8.32764e-014
vernier = 0.0341694
vernier = 0.0170847
vernier = 0.00854234
Gmin = 8.06582e-014
vernier = 0.0113898
vernier = 0.0151864
Gmin = 7.836e-014
vernier = 0.0202485
Gmin = 7.4878e-014
vernier = 0.026998
vernier = 0.0359973
vernier = 0.0179987
vernier = 0.00899933
Gmin = 7.17546e-014
vernier = 0.0119991
Gmin = 6.98459e-014
vernier = 0.0159988
vernier = 0.0213317
Gmin = 6.67574e-014
vernier = 0.0284423
vernier = 0.037923
Gmin = 6.21185e-014
vernier = 0.050564
vernier = 0.025282
vernier = 0.012641
Gmin = 5.9254e-014
vernier = 0.0168547
vernier = 0.0224729
Gmin = 5.67746e-014
vernier = 0.0299639
Gmin = 5.30853e-014
vernier = 0.0399518
vernier = 0.053269
vernier = 0.0266345
vernier = 0.0133173
Gmin = 4.98464e-014
vernier = 0.0177563
Gmin = 4.78981e-014
vernier = 0.0236751
vernier = 0.0315668
Gmin = 4.48008e-014
vernier = 0.0420891
vernier = 0.0561188
Gmin = 4.02792e-014
vernier = 0.074825
vernier = 0.0374125
vernier = 0.0187062
Gmin = 3.75664e-014
vernier = 0.0249417
vernier = 0.0332555
Gmin = 3.52661e-014
vernier = 0.0443407
Gmin = 3.19336e-014
vernier = 0.0591209
vernier = 0.0788279
Gmin = 2.70467e-014
vernier = 0.105104
vernier = 0.0525519
vernier = 0.026276
Gmin = 2.51737e-014
vernier = 0.0350346
vernier = 0.0467128
Gmin = 2.28062e-014
vernier = 0.0622837
vernier = 0.0830449
Gmin = 1.94921e-014
vernier = 0.110727
Gmin = 1.52409e-014
vernier = 0.147635
vernier = 0.196847
Gmin = 1.01185e-014
Terminal Gmin changed to 1e-015
vernier = 0.0984235
vernier = 0.131231
Gmin = 8.40023e-015
vernier = 0.174975
Gmin = 5.71018e-015
vernier = 0.2333
vernier = 0.311067
Gmin = 3.01187e-015
vernier = 0.414755
vernier = 0.553007
Gmin = 1.10721e-015
Terminal Gmin changed to 1e-016
vernier = 0.276504
vernier = 0.368671
Gmin = 6.64519e-016
vernier = 0.491562
Gmin = 2.32984e-016
vernier = 0.655415
vernier = 0.873887
Gmin = 0
Gmin stepping succeeded in finding the operating point.

Ignoring empty pin current: Ix(u3:1)
Ignoring empty pin current: Ix(u3:2)
Ignoring empty pin current: Ix(u4:1)
Ignoring empty pin current: Ix(u4:2)
Ignoring empty pin current: Ix(u6:1)
Ignoring empty pin current: Ix(u6:2)
Ignoring empty pin current: Ix(u21:1)
Ignoring empty pin current: Ix(u21:2)
Ignoring empty pin current: Ix(u3:1)
Ignoring empty pin current: Ix(u3:2)
Ignoring empty pin current: Ix(u4:1)
Ignoring empty pin current: Ix(u4:2)
Ignoring empty pin current: Ix(u6:1)
Ignoring empty pin current: Ix(u6:2)
Ignoring empty pin current: Ix(u21:1)
Ignoring empty pin current: Ix(u21:2)

Date: Sun Jan 27 09:50:17 2019
Total elapsed time: 59.735 seconds.

tnom = 27
temp = 27
method = modified trap
totiter = 407056
traniter = 7272
tranpoints = 3357
accept = 2142
rejected = 1215
matrix size = 59
fillins = 76
solver = Normal
Thread vector: 38.5/13.9[5] 27.1/8.2[5] 14.3/6.9[5] 0.7/0.9[1]  2592/500
Matrix Compiler1: 7.17 KB object code size  3.4/2.2/[0.8]
Matrix Compiler2: 6.97 KB object code size  2.1/2.1/[0.7]


