Circuit: * C:\git\ltspice-projects\Jupiter 6 filter.asc

WARNING: Less than two connections to node N038.  This node is used by R34.
WARNING: Less than two connections to node NC_11.  This node is used by R18.
WARNING: Less than two connections to node NC_13.  This node is used by Q:U7:N11.
WARNING: Less than two connections to node NC_16.  This node is used by Q:U15:N11.
Early termination of direct N-R iteration.
Direct Newton iteration failed to find .op point.  (Use ".option noopiter" to skip.)
Starting Gmin stepping
Gmin = 10
Gmin = 1.07374
Gmin = 0.115292
Gmin = 0.0123794
Gmin = 0.00132923
Gmin = 0.000142725
Gmin = 1.5325e-005
Gmin = 1.6455e-006
vernier = 0.5
vernier = 0.666667
Gmin = 6.16112e-007
vernier = 0.888888
vernier = 1
Gmin = 8.6905e-008
Gmin = 9.33136e-009
Gmin = 1.00195e-009
Gmin = 1.07583e-010
Gmin = 1.15517e-011
Gmin = 1.24035e-012
Gmin = 1.33182e-013
Gmin = 0
Gmin stepping succeeded in finding the operating point.


Date: Mon Dec 31 21:24:47 2018
Total elapsed time: 0.696 seconds.

tnom = 27
temp = 27
method = modified trap
totiter = 800
traniter = 174
tranpoints = 88
accept = 67
rejected = 21
matrix size = 171
fillins = 351
solver = Normal

