Circuit: * C:\git\ltspice-projects\Moog filter - schmitzbits.asc

WARNING: Node OUT is floating.
WARNING: Node NC_02 is floating.
WARNING: Node NC_03 is floating.

WARNING: Less than two connections to node NC_01.  This node is used by R:U2:1.
WARNING: Less than two connections to node OUT.  This node is used by R27.
WARNING: Less than two connections to node NC_02.  This node is used by C12.
WARNING: Less than two connections to node NC_03.  This node is used by C12.
Singular matrix:  Check node nc_03
   Iteration No. 1
Direct Newton iteration failed to find .op point.  (Use ".option noopiter" to skip.)
Starting Gmin stepping
Gmin = 10
Gmin = 1.07374
Gmin = 0.115292
Gmin = 0.0123794
Gmin = 0.00132923
Gmin = 0.000142725
Gmin = 1.5325e-005
Gmin = 1.6455e-006
Gmin = 1.76685e-007
Gmin = 1.89714e-008
Gmin = 2.03704e-009
Gmin = 2.18725e-010
Gmin = 2.34854e-011
Gmin = 2.52173e-012
Gmin = 2.70769e-013
Singular matrix:  Check node nc_02
   Iteration No. 2
Gmin = 0
Singular matrix:  Check node nc_02
   Iteration No. 1
Gmin stepping failed

Starting source stepping with srcstepmethod=0
Singular matrix:  Check node nc_02
   Iteration No. 1
Singular matrix:  Check node nc_03
   Iteration No. 2
Could not converge to DC with sources off!
Starting source stepping with srcstepmethod=1
Singular matrix:  Check node nc_03
   Iteration No. 1
Source Step = 3.0303%
Source Step = 33.3333%
Source Step = 63.6364%
Source Step = 93.9394%
Source stepping succeeded in finding the operating point.

Fatal Error: Analysis Failed: Matrix is singular
