Circuit: * C:\Program Files (x86)\LTC\LTspiceIV\Moog filter.asc

WARNING: Less than two connections to node NC_01.  This node is used by R:U2:1.
WARNING: Less than two connections to node OUT.  This node is used by R27.
Direct Newton iteration for .op point succeeded.
Ignoring empty pin current: Ix(u6:1)
Ignoring empty pin current: Ix(u6:2)
Ignoring empty pin current: Ix(u8:1)
Ignoring empty pin current: Ix(u8:2)
Ignoring empty pin current: Ix(u6:1)
Ignoring empty pin current: Ix(u6:2)
Ignoring empty pin current: Ix(u8:1)
Ignoring empty pin current: Ix(u8:2)

Date: Wed Dec 26 13:02:57 2018
Total elapsed time: 22.762 seconds.

tnom = 27
temp = 27
method = modified trap
totiter = 744585
traniter = 744571
tranpoints = 285198
accept = 195137
rejected = 90061
matrix size = 80
fillins = 146
solver = Normal
Matrix Compiler1: 15.32 KB object code size  5.4/2.9/[1.3]
Matrix Compiler2: 9.61 KB object code size  1.9/1.9/[0.8]


