Circuit: * C:\git\ltspice-projects\Moog filter - xm8 half volt octave - 12-24-dB with const current sources and overdrive.asc

Warning: Multiple definitions of model "pnpl" Type: BJT
Warning: Multiple definitions of model "npnv" Type: BJT
WARNING: Less than two connections to node NC_02.  This node is used by Q:U8:N11.
WARNING: Less than two connections to node NC_05.  This node is used by Q:U6:N11.
WARNING: Less than two connections to node NC_07.  This node is used by R:U20:2.
WARNING: Less than two connections to node LIN_FM.  This node is used by R16.
Direct Newton iteration failed to find .op point.  (Use ".option noopiter" to skip.)
Starting Gmin stepping
Gmin = 10
Gmin = 1.07374
Gmin = 0.115292
Gmin = 0.0123794
Gmin = 0.00132923
Gmin = 0.000142725
Gmin = 1.5325e-005
Gmin = 1.6455e-006
Gmin = 1.76685e-007
Gmin = 1.89714e-008
Gmin = 2.03704e-009
Gmin = 2.18725e-010
Gmin = 2.34854e-011
Gmin = 2.52173e-012
Gmin = 2.70769e-013
Gmin = 0
Gmin stepping succeeded in finding the operating point.

Ignoring empty pin current: Ix(u2:1)
Ignoring empty pin current: Ix(u2:2)
Ignoring empty pin current: Ix(u5:1)
Ignoring empty pin current: Ix(u5:2)
Ignoring empty pin current: Ix(u7:1)
Ignoring empty pin current: Ix(u7:2)
Ignoring empty pin current: Ix(u3:1)
Ignoring empty pin current: Ix(u3:2)
Ignoring empty pin current: Ix(u10:1)
Ignoring empty pin current: Ix(u10:2)
Ignoring empty pin current: Ix(u12:1)
Ignoring empty pin current: Ix(u12:2)
Ignoring empty pin current: Ix(u14:1)
Ignoring empty pin current: Ix(u14:2)
Ignoring empty pin current: Ix(u15:1)
Ignoring empty pin current: Ix(u15:2)
Ignoring empty pin current: Ix(u16:1)
Ignoring empty pin current: Ix(u16:2)
Ignoring empty pin current: Ix(u18:1)
Ignoring empty pin current: Ix(u18:2)
Ignoring empty pin current: Ix(u2:1)
Ignoring empty pin current: Ix(u2:2)
Ignoring empty pin current: Ix(u5:1)
Ignoring empty pin current: Ix(u5:2)
Ignoring empty pin current: Ix(u7:1)
Ignoring empty pin current: Ix(u7:2)
Ignoring empty pin current: Ix(u3:1)
Ignoring empty pin current: Ix(u3:2)
Ignoring empty pin current: Ix(u10:1)
Ignoring empty pin current: Ix(u10:2)
Ignoring empty pin current: Ix(u12:1)
Ignoring empty pin current: Ix(u12:2)
Ignoring empty pin current: Ix(u14:1)
Ignoring empty pin current: Ix(u14:2)
Ignoring empty pin current: Ix(u15:1)
Ignoring empty pin current: Ix(u15:2)
Ignoring empty pin current: Ix(u16:1)
Ignoring empty pin current: Ix(u16:2)
Ignoring empty pin current: Ix(u18:1)
Ignoring empty pin current: Ix(u18:2)
.step ampl=1
.step ampl=2
.step ampl=3
.step ampl=4
.step ampl=5

Date: Thu Feb 21 21:11:17 2019
Total elapsed time: 2.796 seconds.

tnom = 27
temp = 27
method = modified trap
totiter = 2650
traniter = 2088
tranpoints = 1045
accept = 1045
rejected = 0
matrix size = 119
fillins = 182
solver = Normal
Thread vector: 38.1/16.6[5] 26.6/8.7[5] 13.3/6.5[5] 1.0/1.6[1]  2592/500
Matrix Compiler1: 18.22 KB object code size  8.0/5.5/[2.3]
Matrix Compiler2: 14.20 KB object code size  4.7/5.1/[1.7]


