Circuit: * C:\git\ltspice-projects\Moog filter - xm8 half volt octave.asc

WARNING: Node N010 is floating.

WARNING: Less than two connections to node N010.  This node is used by C5.
WARNING: Less than two connections to node NC_02.  This node is used by Q:U8:N11.
Direct Newton iteration failed to find .op point.  (Use ".option noopiter" to skip.)
Starting Gmin stepping
Gmin = 10
Gmin = 1.07374
Gmin = 0.115292
Gmin = 0.0123794
Gmin = 0.00132923
Gmin = 0.000142725
Gmin = 1.5325e-005
Gmin = 1.6455e-006
Gmin = 1.76685e-007
Gmin = 1.89714e-008
Gmin = 2.03704e-009
Gmin = 2.18725e-010
Gmin = 2.34854e-011
Gmin = 2.52173e-012
Gmin = 2.70769e-013
Gmin = 0
Gmin stepping succeeded in finding the operating point.

Ignoring empty pin current: Ix(u2:1)
Ignoring empty pin current: Ix(u2:2)
Ignoring empty pin current: Ix(u5:1)
Ignoring empty pin current: Ix(u5:2)
Ignoring empty pin current: Ix(u6:1)
Ignoring empty pin current: Ix(u6:2)
Ignoring empty pin current: Ix(u7:1)
Ignoring empty pin current: Ix(u7:2)
Ignoring empty pin current: Ix(u3:1)
Ignoring empty pin current: Ix(u3:2)
Ignoring empty pin current: Ix(u10:1)
Ignoring empty pin current: Ix(u10:2)
Ignoring empty pin current: Ix(u2:1)
Ignoring empty pin current: Ix(u2:2)
Ignoring empty pin current: Ix(u5:1)
Ignoring empty pin current: Ix(u5:2)
Ignoring empty pin current: Ix(u6:1)
Ignoring empty pin current: Ix(u6:2)
Ignoring empty pin current: Ix(u7:1)
Ignoring empty pin current: Ix(u7:2)
Ignoring empty pin current: Ix(u3:1)
Ignoring empty pin current: Ix(u3:2)
Ignoring empty pin current: Ix(u10:1)
Ignoring empty pin current: Ix(u10:2)

Date: Thu Dec 27 15:42:06 2018
Total elapsed time: 0.671 seconds.

tnom = 27
temp = 27
method = modified trap
totiter = 2668
traniter = 2130
tranpoints = 1066
accept = 1060
rejected = 6
matrix size = 94
fillins = 161
solver = Normal
Thread vector: 25.3/13.1[3] 13.8/5.9[3] 6.6/4.4[3] 0.9/2.7[1]  2592/500
Matrix Compiler1: 15.35 KB object code size  6.0/3.4/[1.5]
Matrix Compiler2: 11.25 KB object code size  3.2/3.1/[1.2]


