Circuit: * C:\Program Files (x86)\LTC\LTspiceIV\Moog filter - schmitzbits.asc

WARNING: Node OUT is floating.

WARNING: Less than two connections to node NC_01.  This node is used by R:U2:1.
WARNING: Less than two connections to node OUT.  This node is used by R27.
Direct Newton iteration for .op point succeeded.

Date: Thu Dec 27 14:50:12 2018
Total elapsed time: 0.110 seconds.

tnom = 27
temp = 27
method = trap
totiter = 15
traniter = 0
tranpoints = 0
accept = 0
rejected = 0
matrix size = 76
fillins = 140
solver = Normal
Matrix Compiler1:     789 opcodes
Matrix Compiler2: 9.22 KB object code size

