Circuit: * C:\git\ltspice-projects\Moog filter - xm8 half volt octave - output vca - debug.asc

Warning: Multiple definitions of model "pnpl" Type: BJT
Warning: Multiple definitions of model "npnv" Type: BJT
WARNING: Less than two connections to node NC_02.  This node is used by Q:U8:N11.
WARNING: Less than two connections to node NC_05.  This node is used by Q:U6:N11.
Direct Newton iteration failed to find .op point.  (Use ".option noopiter" to skip.)
Starting Gmin stepping
Gmin = 10
Gmin = 1.07374
Gmin = 0.115292
Gmin = 0.0123794
Gmin = 0.00132923
Gmin = 0.000142725
Gmin = 1.5325e-005
Gmin = 1.6455e-006
Gmin = 1.76685e-007
Gmin = 1.89714e-008
Gmin = 2.03704e-009
Gmin = 2.18725e-010
Gmin = 2.34854e-011
Gmin = 2.52173e-012
Gmin = 2.70769e-013
Gmin = 0
Gmin stepping succeeded in finding the operating point.

Ignoring empty pin current: Ix(u2:1)
Ignoring empty pin current: Ix(u2:2)
Ignoring empty pin current: Ix(u5:1)
Ignoring empty pin current: Ix(u5:2)
Ignoring empty pin current: Ix(u7:1)
Ignoring empty pin current: Ix(u7:2)
Ignoring empty pin current: Ix(u3:1)
Ignoring empty pin current: Ix(u3:2)
Ignoring empty pin current: Ix(u10:1)
Ignoring empty pin current: Ix(u10:2)
Ignoring empty pin current: Ix(u12:1)
Ignoring empty pin current: Ix(u12:2)
Ignoring empty pin current: Ix(u2:1)
Ignoring empty pin current: Ix(u2:2)
Ignoring empty pin current: Ix(u5:1)
Ignoring empty pin current: Ix(u5:2)
Ignoring empty pin current: Ix(u7:1)
Ignoring empty pin current: Ix(u7:2)
Ignoring empty pin current: Ix(u3:1)
Ignoring empty pin current: Ix(u3:2)
Ignoring empty pin current: Ix(u10:1)
Ignoring empty pin current: Ix(u10:2)
Ignoring empty pin current: Ix(u12:1)
Ignoring empty pin current: Ix(u12:2)

Date: Sat Jan 19 21:38:01 2019
Total elapsed time: 0.647 seconds.

tnom = 27
temp = 27
method = modified trap
totiter = 4107
traniter = 3548
tranpoints = 1753
accept = 1392
rejected = 361
matrix size = 113
fillins = 169
solver = Normal
Thread vector: 37.0/18.2[5] 31.7/9.9[5] 10.8/6.5[5] 0.9/1.1[1]  2592/500
Matrix Compiler1: 17.48 KB object code size  9.9/6.0/[2.7]
Matrix Compiler2: 13.40 KB object code size  4.0/4.7/[1.6]


