Circuit: * C:\Program Files (x86)\LTC\LTspiceIV\Moog filter - xm8 half volt octave - output vca.asc

Warning: Multiple definitions of model "pnpl" Type: BJT
Warning: Multiple definitions of model "npnv" Type: BJT
WARNING: Node N038 is floating.

WARNING: Less than two connections to node N038.  This node is used by C5.
WARNING: Less than two connections to node NC_02.  This node is used by Q:U8:N11.
WARNING: Less than two connections to node NC_05.  This node is used by Q:U11:N11.
Early termination of direct N-R iteration.
Direct Newton iteration failed to find .op point.  (Use ".option noopiter" to skip.)
Starting Gmin stepping
Gmin = 10
Gmin = 1.07374
Gmin = 0.115292
Gmin = 0.0123794
Gmin = 0.00132923
Gmin = 0.000142725
Gmin = 1.5325e-005
Gmin = 1.6455e-006
Gmin = 1.76685e-007
Gmin = 1.89714e-008
Gmin = 2.03704e-009
Gmin = 2.18725e-010
Gmin = 2.34854e-011
Gmin = 2.52173e-012
Gmin = 2.70769e-013
Gmin = 0
Gmin stepping succeeded in finding the operating point.

Ignoring empty pin current: Ix(u2:1)
Ignoring empty pin current: Ix(u2:2)
Ignoring empty pin current: Ix(u5:1)
Ignoring empty pin current: Ix(u5:2)
Ignoring empty pin current: Ix(u6:1)
Ignoring empty pin current: Ix(u6:2)
Ignoring empty pin current: Ix(u7:1)
Ignoring empty pin current: Ix(u7:2)
Ignoring empty pin current: Ix(u3:1)
Ignoring empty pin current: Ix(u3:2)
Ignoring empty pin current: Ix(u10:1)
Ignoring empty pin current: Ix(u10:2)
Ignoring empty pin current: Ix(u2:1)
Ignoring empty pin current: Ix(u2:2)
Ignoring empty pin current: Ix(u5:1)
Ignoring empty pin current: Ix(u5:2)
Ignoring empty pin current: Ix(u6:1)
Ignoring empty pin current: Ix(u6:2)
Ignoring empty pin current: Ix(u7:1)
Ignoring empty pin current: Ix(u7:2)
Ignoring empty pin current: Ix(u3:1)
Ignoring empty pin current: Ix(u3:2)
Ignoring empty pin current: Ix(u10:1)
Ignoring empty pin current: Ix(u10:2)

Date: Thu Dec 27 15:37:58 2018
Total elapsed time: 0.540 seconds.

tnom = 27
temp = 27
method = modified trap
totiter = 3028
traniter = 2515
tranpoints = 1209
accept = 1128
rejected = 81
matrix size = 118
fillins = 175
solver = Normal
Thread vector: 35.8/15.2[5] 21.2/8.0[5] 10.4/7.4[5] 1.0/1.3[1]  2592/500
Matrix Compiler1: 17.83 KB object code size  7.0/3.9/[1.7]
Matrix Compiler2: 13.79 KB object code size  4.2/4.3/[1.8]


