Circuit: * C:\Program Files (x86)\LTC\LTspiceIV\Moog filter - yusynth - no buffer.asc

WARNING: Node OUT is floating.

WARNING: Less than two connections to node NC_01.  This node is used by R:U2:1.
WARNING: Less than two connections to node OUT.  This node is used by R27.
Direct Newton iteration for .op point succeeded.

Date: Wed Dec 26 23:28:11 2018
Total elapsed time: 0.151 seconds.

tnom = 27
temp = 27
method = trap
totiter = 12
traniter = 0
tranpoints = 0
accept = 0
rejected = 0
matrix size = 75
fillins = 138
solver = Normal
Matrix Compiler1:     786 opcodes
Matrix Compiler2: 9.12 KB object code size

