Circuit: * C:\Users\Joakim\Documents\Elektronikk og synth\LTspice\OTA-filter-test.asc

Direct Newton iteration failed to find .op point.  (Use ".option noopiter" to skip.)
Starting Gmin stepping
Gmin = 10
Gmin = 1.07374
Gmin = 0.115292
Gmin = 0.0123794
Gmin = 0.00132923
Gmin = 0.000142725
Gmin = 1.5325e-005
vernier = 0.5
vernier = 0.25
Gmin = 7.26842e-006
vernier = 0.333333
vernier = 0.444444
Gmin = 3.22622e-006
vernier = 0.592592
vernier = 0.296296
Gmin = 1.21807e-006
vernier = 0.148148
vernier = 0.074074
vernier = 0.037037
vernier = 0.0185185
vernier = 0.00925925
vernier = 0.00462963
Gmin = 1.21245e-006
vernier = 0.00617283
vernier = 0.00823044
Gmin = 1.19252e-006
vernier = 0.0109739
vernier = 0.0146319
Gmin = 1.16161e-006
vernier = 0.0195092
Gmin = 1.11319e-006
vernier = 0.0260122
vernier = 0.034683
Gmin = 1.03828e-006
vernier = 0.046244
vernier = 0.0616586
Gmin = 9.29977e-007
vernier = 0.0822114
Gmin = 7.78176e-007
vernier = 0.109615
vernier = 0.146154
Gmin = 5.82155e-007
vernier = 0.194871
vernier = 0.259828
Gmin = 3.68976e-007
vernier = 0.346438
Gmin = 1.77816e-007
vernier = 0.461917
vernier = 0.615889
Gmin = 5.52767e-008
vernier = 0.821185
vernier = 1
Gmin = 9.38605e-009
Gmin = 1.00782e-009
Gmin = 1.08214e-010
Gmin = 1.16194e-011
Gmin = 1.24762e-012
Gmin = 1.33962e-013
Gmin = 0
Gmin stepping succeeded in finding the operating point.

Early termination of direct N-R iteration.
Direct Newton iteration failed to find .op point.  (Use ".option noopiter" to skip.)
Starting Gmin stepping
Gmin = 10
Gmin = 1.07374
Gmin = 0.115292
Gmin = 0.0123794
Gmin = 0.00132923
Gmin = 0.000142725
Gmin = 1.5325e-005
vernier = 0.5
vernier = 0.25
Gmin = 7.26842e-006
vernier = 0.333333
vernier = 0.444444
Gmin = 3.22622e-006
vernier = 0.592592
vernier = 0.296296
Gmin = 1.21807e-006
vernier = 0.148148
vernier = 0.074074
vernier = 0.037037
vernier = 0.0185185
vernier = 0.00925925
Gmin = 1.20407e-006
vernier = 0.0123457
vernier = 0.0164609
Gmin = 1.16275e-006
vernier = 0.0219478
vernier = 0.0292638
Gmin = 1.09984e-006
vernier = 0.0390184
vernier = 0.0195092
Gmin = 1.03755e-006
vernier = 0.00975459
vernier = 0.0048773
vernier = 0.00650306
Gmin = 1.03292e-006
vernier = 0.00867074
vernier = 0.00433537
vernier = 0.00216769
Gmin = 1.02456e-006
vernier = 0.00289025
vernier = 0.00385366
Gmin = 1.01707e-006
vernier = 0.00513821
Gmin = 1.00538e-006
vernier = 0.00685095
vernier = 0.00342548
vernier = 0.0045673
Gmin = 9.97667e-007
vernier = 0.00608973
vernier = 0.00811964
Gmin = 9.83228e-007
vernier = 0.00405982
vernier = 0.00202991
vernier = 0.00101495
vernier = 0.000507477
Gmin = 0
Gmin stepping failed

Starting source stepping with srcstepmethod=0
Source Step = 3.0303%
Source Step = 21.2595%
Source Step = 21.733%
Source Step = 22.2064%
Source Step = 22.6799%
Source Step = 23.1534%
Source Step = 23.6269%
vernier = 0.0234375
Source Step = 24.3371%
Source Step = 25.0473%
Source Step = 25.7576%
Source Step = 26.4678%
Source Step = 27.178%
vernier = 0.0351563
Source Step = 28.2079%
Source Step = 29.2732%
Source Step = 30.3385%
Source Step = 31.4039%
Source Step = 32.4692%
vernier = 0.0527344
Source Step = 33.9607%
Source Step = 35.5587%
Source Step = 37.1567%
Source Step = 38.7547%
Source Step = 40.3527%
vernier = 0.0791016
Source Step = 42.5101%
Source Step = 44.9071%
Source Step = 47.3041%
Source Step = 49.7011%
Source Step = 52.0981%
vernier = 0.118652
Source Step = 55.2143%
Source Step = 58.8098%
Source Step = 62.4053%
Source Step = 66.0008%
Source Step = 69.5964%
vernier = 0.177979
Source Step = 74.0908%
Source Step = 79.484%
Source Step = 84.8773%
Source Step = 90.2706%
Source Step = 95.6639%
vernier = 0.266968
Source stepping succeeded in finding the operating point.

Early termination of direct N-R iteration.
Direct Newton iteration failed to find .op point.  (Use ".option noopiter" to skip.)
Starting Gmin stepping
Gmin = 10
Gmin = 1.07374
Gmin = 0.115292
Gmin = 0.0123794
Gmin = 0.00132923
Gmin = 0.000142725
Gmin = 1.5325e-005
vernier = 0.5
vernier = 0.25
Gmin = 7.26842e-006
vernier = 0.333333
vernier = 0.444444
Gmin = 3.22622e-006
vernier = 0.592592
vernier = 0.296296
vernier = 0.148148
Gmin = 1.39853e-006
vernier = 0.074074
vernier = 0.037037
vernier = 0.0185185
vernier = 0.00925925
vernier = 0.00462963
Gmin = 1.39046e-006
vernier = 0.00617283
vernier = 0.00823044
Gmin = 1.36638e-006
vernier = 0.0109739
vernier = 0.0146319
Gmin = 1.32884e-006
vernier = 0.00731595
vernier = 0.00365797
Gmin = 1.30957e-006
vernier = 0.0048773
vernier = 0.00243865
Gmin = 1.30201e-006
vernier = 0.00325153
vernier = 0.00162576
vernier = 0.00216769
Gmin = 1.29726e-006
vernier = 0.00289025
vernier = 0.00144512
Gmin = 1.29282e-006
vernier = 0.00192683
vernier = 0.000963415
vernier = 0.000481708
Gmin = 1.29079e-006
vernier = 0.000642277
vernier = 0.000856369
Gmin = 1.28845e-006
vernier = 0.00114182
vernier = 0.00152243
vernier = 0.000761216
Gmin = 1.28569e-006
vernier = 0.00101495
Gmin = 1.28284e-006
vernier = 0.00135327
vernier = 0.00180436
vernier = 0.000902182
Gmin = 1.27963e-006
vernier = 0.00120291
Gmin = 1.27617e-006
vernier = 0.00160388
vernier = 0.000801939
vernier = 0.00106925
Gmin = 1.27387e-006
vernier = 0.00142567
vernier = 0.000712834
Gmin = 1.27171e-006
vernier = 0.000950445
vernier = 0.00126726
Gmin = 1.26829e-006
vernier = 0.00168968
vernier = 0.00084484
vernier = 0.00112645
Gmin = 1.2658e-006
vernier = 0.00150194
vernier = 0.000750968
Gmin = 1.2633e-006
vernier = 0.00100129
vernier = 0.00133505
vernier = 0.000667527
Gmin = 1.26093e-006
vernier = 0.000890036
Gmin = 1.25848e-006
vernier = 0.00118671
vernier = 0.00158229
vernier = 0.000791143
Gmin = 1.25572e-006
vernier = 0.00105486
Gmin = 1.25274e-006
vernier = 0.00140648
vernier = 0.000703238
vernier = 0.00093765
Gmin = 1.25076e-006
vernier = 0.0012502
vernier = 0.0006251
Gmin = 1.2489e-006
vernier = 0.000833466
vernier = 0.00111129
Gmin = 1.24596e-006
vernier = 0.00148172
vernier = 0.000740858
vernier = 0.000987811
Gmin = 1.24381e-006
vernier = 0.00131708
vernier = 0.000658541
Gmin = 1.24166e-006
vernier = 0.000878054
vernier = 0.00117074
vernier = 0.000585369
Gmin = 1.23962e-006
vernier = 0.000780492
Gmin = 1.2375e-006
vernier = 0.00104066
vernier = 0.00138754
vernier = 0.00069377
Gmin = 1.23512e-006
vernier = 0.000925027
Gmin = 1.23255e-006
vernier = 0.00123337
vernier = 0.000616684
vernier = 0.000822246
Gmin = 1.23084e-006
vernier = 0.00109633
vernier = 0.00146177
Gmin = 1.22761e-006
vernier = 0.000730885
vernier = 0.000974513
Gmin = 1.22574e-006
vernier = 0.00129935
vernier = 0.000649675
vernier = 0.000866233
Gmin = 1.22389e-006
vernier = 0.00115498
vernier = 0.000577488
Gmin = 1.22203e-006
vernier = 0.000769984
vernier = 0.00102665
Gmin = 1.21965e-006
vernier = 0.00136886
vernier = 0.00068443
Gmin = 1.21756e-006
vernier = 0.000912573
vernier = 0.00121676
vernier = 0.000608382
Gmin = 1.2155e-006
vernier = 0.000811176
Gmin = 1.21329e-006
vernier = 0.00108157
vernier = 0.000540784
vernier = 0.000721045
Gmin = 1.21181e-006
vernier = 0.000961393
vernier = 0.00128186
Gmin = 1.20902e-006
vernier = 0.000640929
vernier = 0.000854571
Gmin = 1.20741e-006
vernier = 0.00113943
vernier = 0.000569714
vernier = 0.000759618
Gmin = 1.20581e-006
vernier = 0.00101282
vernier = 0.000506412
Gmin = 1.2042e-006
vernier = 0.000675216
vernier = 0.000900288
Gmin = 1.20214e-006
vernier = 0.00120038
vernier = 0.000600192
Gmin = 1.20034e-006
vernier = 0.000800255
vernier = 0.00106701
vernier = 0.000533504
Gmin = 1.19856e-006
vernier = 0.000711338
Gmin = 1.19664e-006
vernier = 0.00094845
vernier = 0.0012646
vernier = 0.0006323
Gmin = 1.19456e-006
vernier = 0.000843066
vernier = 0.00112409
Gmin = 1.19215e-006
vernier = 0.000562044
vernier = 0.000749392
Gmin = 1.19076e-006
vernier = 0.000999189
vernier = 0.000499595
vernier = 0.000666126
Gmin = 1.18937e-006
vernier = 0.000888168
Gmin = 1.18706e-006
vernier = 0.00118422
vernier = 0.000592112
vernier = 0.000789482
Gmin = 1.18545e-006
vernier = 0.00105264
vernier = 0.000526321
Gmin = 1.18389e-006
vernier = 0.000701761
vernier = 0.000935682
vernier = 0.000467841
Gmin = 1.18235e-006
vernier = 0.000623788
Gmin = 1.1807e-006
vernier = 0.000831717
vernier = 0.00110896
vernier = 0.000554478
Gmin = 1.1789e-006
vernier = 0.000739303
vernier = 0.000985737
Gmin = 1.17681e-006
vernier = 0.000492869
vernier = 0.000657158
Gmin = 1.1756e-006
vernier = 0.000876211
vernier = 0.000438105
vernier = 0.00058414
Gmin = 1.1744e-006
vernier = 0.000778853
Gmin = 1.1724e-006
vernier = 0.00103847
vernier = 0.000519236
vernier = 0.000692314
Gmin = 1.17101e-006
vernier = 0.000923085
vernier = 0.000461542
Gmin = 1.16966e-006
vernier = 0.00061539
vernier = 0.00082052
vernier = 0.00041026
Gmin = 1.16833e-006
vernier = 0.000547013
Gmin = 1.16689e-006
vernier = 0.00072935
vernier = 0.000972467
vernier = 0.000486233
Gmin = 1.16533e-006
vernier = 0.000648311
vernier = 0.000864415
Gmin = 1.16352e-006
vernier = 0.000432207
vernier = 0.000576276
Gmin = 1.16247e-006
vernier = 0.000768368
vernier = 0.00102449
vernier = 0.000512245
Gmin = 1.1608e-006
vernier = 0.000682994
Gmin = 1.15907e-006
vernier = 0.000910658
vernier = 0.000455329
vernier = 0.000607105
Gmin = 1.15786e-006
vernier = 0.000809473
vernier = 0.000404737
Gmin = 1.15669e-006
vernier = 0.000539649
vernier = 0.000719531
Gmin = 1.15501e-006
vernier = 0.000959375
vernier = 0.000479687
Gmin = 1.1537e-006
vernier = 0.000639583
vernier = 0.000852777
vernier = 0.000426389
Gmin = 1.15234e-006
vernier = 0.000568518
vernier = 0.000758024
Gmin = 1.15078e-006
vernier = 0.000568518
vernier = 0.000758024
vernier = 0.000568518
Gmin = 1.14985e-006
vernier = 0.000758023
vernier = 0.000568518
Gmin = 1.14854e-006
vernier = 0.000758023
vernier = 0.000568517
vernier = 0.000758023
vernier = 0.000568517
Gmin = 1.14756e-006
vernier = 0.000758023
vernier = 0.000568517
Gmin = 1.14626e-006
vernier = 0.000758023
vernier = 0.000568517
vernier = 0.000758023
vernier = 0.000568517
Gmin = 1.14528e-006
vernier = 0.000758022
vernier = 0.000568517
Gmin = 1.14398e-006
vernier = 0.000758022
vernier = 0.000568517
vernier = 0.000758022
Gmin = 1.14263e-006
vernier = 0.000568516
vernier = 0.000758022
vernier = 0.000568516
Gmin = 1.14171e-006
vernier = 0.000758022
vernier = 0.000568516
Gmin = 1.14041e-006
vernier = 0.000758021
vernier = 0.000568516
vernier = 0.000758021
vernier = 0.000568516
Gmin = 1.13944e-006
vernier = 0.000758021
vernier = 0.000568516
Gmin = 1.13814e-006
vernier = 0.000758021
vernier = 0.000568516
vernier = 0.000758021
vernier = 0.000568515
Gmin = 1.13717e-006
vernier = 0.00075802
vernier = 0.000568515
Gmin = 1.13588e-006
vernier = 0.00075802
vernier = 0.000568515
vernier = 0.00075802
Gmin = 1.13454e-006
vernier = 0.000568515
vernier = 0.00075802
vernier = 0.000568515
Gmin = 1.13362e-006
vernier = 0.00075802
vernier = 0.000568515
Gmin = 1.13234e-006
vernier = 0.00075802
vernier = 0.000568515
vernier = 0.000758019
vernier = 0.000568514
Gmin = 1.13137e-006
vernier = 0.000758019
vernier = 0.000568514
Gmin = 1.13009e-006
vernier = 0.000758019
vernier = 0.000568514
vernier = 0.000758019
vernier = 0.000568514
Gmin = 1.12912e-006
vernier = 0.000758019
vernier = 0.000568514
Gmin = 1.12784e-006
vernier = 0.000758018
vernier = 0.000568514
vernier = 0.000758018
Gmin = 1.1265e-006
vernier = 0.000568514
vernier = 0.000758018
vernier = 0.000568514
Gmin = 1.1256e-006
vernier = 0.000758018
vernier = 0.000568513
Gmin = 1.12432e-006
vernier = 0.000758018
vernier = 0.000568513
vernier = 0.000758017
vernier = 0.000568513
Gmin = 1.12336e-006
vernier = 0.000758017
vernier = 0.000568513
Gmin = 1.12208e-006
vernier = 0.000758017
vernier = 0.000568513
vernier = 0.000758017
vernier = 0.000568513
Gmin = 1.12113e-006
vernier = 0.000758017
vernier = 0.000568513
Gmin = 1.11985e-006
vernier = 0.000758016
vernier = 0.000568512
vernier = 0.000758016
Gmin = 1.11853e-006
vernier = 0.000568512
vernier = 0.000758016
vernier = 0.000568512
Gmin = 1.11763e-006
vernier = 0.000758016
vernier = 0.000568512
Gmin = 1.11636e-006
vernier = 0.000758016
vernier = 0.000568512
vernier = 0.000758016
vernier = 0.000568512
Gmin = 1.11541e-006
vernier = 0.000758015
vernier = 0.000568512
Gmin = 1.11414e-006
vernier = 0.000758015
vernier = 0.000568511
vernier = 0.000758015
vernier = 0.000568511
Gmin = 1.11319e-006
vernier = 0.000758015
vernier = 0.000568511
Gmin = 1.11192e-006
vernier = 0.000758015
vernier = 0.000568511
vernier = 0.000758014
Gmin = 1.11061e-006
vernier = 0.000568511
vernier = 0.000758014
vernier = 0.000568511
Gmin = 1.10971e-006
vernier = 0.000758014
vernier = 0.000568511
Gmin = 1.10845e-006
vernier = 0.000758014
vernier = 0.00056851
vernier = 0.000426383
vernier = 0.00056851
Gmin = 1.1077e-006
vernier = 0.000426383
vernier = 0.00056851
vernier = 0.000426383
Gmin = 1.10704e-006
vernier = 0.00056851
vernier = 0.000426382
Gmin = 1.10609e-006
vernier = 0.00056851
vernier = 0.000426382
vernier = 0.00056851
vernier = 0.000426382
Gmin = 1.10538e-006
vernier = 0.00056851
vernier = 0.000426382
Gmin = 1.10444e-006
vernier = 0.000568509
vernier = 0.000426382
vernier = 0.000568509
vernier = 0.000426382
Gmin = 1.10374e-006
vernier = 0.000568509
vernier = 0.000426382
Gmin = 1.1028e-006
vernier = 0.000568509
vernier = 0.000426382
vernier = 0.000568509
Gmin = 1.10182e-006
vernier = 0.000426382
vernier = 0.000568509
vernier = 0.000426382
Gmin = 1.10115e-006
vernier = 0.000568509
vernier = 0.000426381
Gmin = 1.10021e-006
vernier = 0.000568508
vernier = 0.000426381
vernier = 0.000568508
vernier = 0.000426381
Gmin = 1.09951e-006
vernier = 0.000568508
vernier = 0.000426381
Gmin = 1.09857e-006
vernier = 0.000568508
vernier = 0.000426381
vernier = 0.000568508
vernier = 0.000426381
Gmin = 1.09787e-006
vernier = 0.000568508
vernier = 0.000426381
Gmin = 1.09693e-006
vernier = 0.000568508
vernier = 0.000426381
vernier = 0.000568507
Gmin = 1.09596e-006
vernier = 0.000426381
vernier = 0.000568507
vernier = 0.00042638
Gmin = 1.0953e-006
vernier = 0.000568507
vernier = 0.00042638
Gmin = 1.09436e-006
vernier = 0.000568507
vernier = 0.00042638
vernier = 0.000568507
vernier = 0.00042638
Gmin = 1.09367e-006
vernier = 0.000568507
vernier = 0.00042638
Gmin = 1.09273e-006
vernier = 0.000568507
vernier = 0.00042638
vernier = 0.000568506
vernier = 0.00042638
Gmin = 1.09203e-006
vernier = 0.000568506
vernier = 0.00042638
Gmin = 1.0911e-006
vernier = 0.000568506
vernier = 0.00042638
vernier = 0.000568506
Gmin = 1.09013e-006
vernier = 0.000426379
vernier = 0.000568506
vernier = 0.000426379
Gmin = 1.08948e-006
vernier = 0.000568506
vernier = 0.000426379
Gmin = 1.08855e-006
vernier = 0.000568506
vernier = 0.000426379
vernier = 0.000568505
vernier = 0.000426379
Gmin = 1.08785e-006
vernier = 0.000568505
vernier = 0.000426379
Gmin = 1.08692e-006
vernier = 0.000568505
vernier = 0.000426379
vernier = 0.000568505
vernier = 0.000426379
Gmin = 1.08623e-006
vernier = 0.000568505
vernier = 0.000426379
Gmin = 1.0853e-006
vernier = 0.000568505
vernier = 0.000426379
vernier = 0.000568505
Gmin = 1.08434e-006
vernier = 0.000426378
vernier = 0.000568504
vernier = 0.000426378
Gmin = 1.08369e-006
vernier = 0.000568504
vernier = 0.000426378
Gmin = 1.08276e-006
Gmin = 0
Gmin stepping failed

Starting source stepping with srcstepmethod=0
Source Step = 3.0303%
Source Step = 21.2595%
Source Step = 21.733%
Source Step = 22.2064%
Source Step = 22.6799%
Source Step = 23.1534%
Source Step = 23.6269%
vernier = 0.0234375
Source Step = 24.3371%
Source Step = 25.0473%
Source Step = 25.7576%
Source Step = 26.4678%
Source Step = 27.178%
vernier = 0.0351563
Source Step = 28.2079%
Source Step = 29.2732%
Source Step = 30.3385%
Source Step = 31.4039%
Source Step = 32.4692%
vernier = 0.0527344
Source Step = 33.9607%
Source Step = 35.5587%
Source Step = 37.1567%
Source Step = 38.7547%
Source Step = 40.3527%
vernier = 0.0791016
Source Step = 42.5101%
Source Step = 44.9071%
Source Step = 47.3041%
Source Step = 49.7011%
Source Step = 52.0981%
vernier = 0.118652
Source Step = 55.2143%
Source Step = 58.8098%
Source Step = 62.4053%
Source Step = 66.0008%
Source Step = 69.5964%
vernier = 0.177979
Source Step = 74.0908%
Source Step = 79.484%
Source Step = 84.8773%
Source Step = 90.2706%
Source Step = 95.6639%
vernier = 0.266968
Source stepping succeeded in finding the operating point.


Date: Mon Feb 05 06:27:47 2018
Total elapsed time: 13.072 seconds.

tnom = 27
temp = 27
method = trap
totiter = 28320
traniter = 0
tranpoints = 0
accept = 0
rejected = 0
matrix size = 179
fillins = 340
solver = Normal
Thread vector: 181.0/54.6[8] 0.0/0.0[0] 63.2/18.6[8] 1.8/2.8[1]  2592/500
Matrix Compiler1: 33.68 KB object code size  16.1/8.7/[3.1]
Matrix Compiler2: 26.26 KB object code size  9.0/7.4/[2.7]


