Circuit: * C:\Users\Joakim\Documents\Elektronikk og synth\LTspice\OTA-gain-test.asc

.dc sweep increment has wrong sign -- fixing...
Direct Newton iteration failed to find .op point.  (Use ".option noopiter" to skip.)
Starting Gmin stepping
Gmin = 10
Gmin = 1.07374
Gmin = 0.115292
Gmin = 0.0123794
Gmin = 0.00132923
Gmin = 0.000142725
Gmin = 1.5325e-005
Gmin = 1.6455e-006
Gmin = 1.76685e-007
Gmin = 1.89714e-008
Gmin = 2.03704e-009
Gmin = 2.18725e-010
Gmin = 2.34854e-011
Gmin = 2.52173e-012
Gmin = 2.70769e-013
Gmin = 0
Gmin stepping succeeded in finding the operating point.

Direct Newton iteration failed to find .op point.  (Use ".option noopiter" to skip.)
Starting Gmin stepping
Gmin = 10
Gmin = 1.07374
Gmin = 0.115292
Gmin = 0.0123794
Gmin = 0.00132923
Gmin = 0.000142725
Gmin = 1.5325e-005
Gmin = 1.6455e-006
Gmin = 1.76685e-007
Gmin = 1.89714e-008
Gmin = 2.03704e-009
vernier = 0.5
vernier = 0.25
Gmin = 5.02585e-010
vernier = 0.333333
Gmin = 2.43962e-010
vernier = 0.444444
vernier = 0.222222
vernier = 0.111111
vernier = 0.148148
Gmin = 1.97805e-010
vernier = 0.197531
Gmin = 1.28073e-010
vernier = 0.263374
vernier = 0.131687
vernier = 0.0658435
vernier = 0.0877914
Gmin = 1.13017e-010
vernier = 0.117055
Gmin = 8.71506e-011
vernier = 0.156073
vernier = 0.0780367
vernier = 0.0390184
vernier = 0.0520245
Gmin = 8.09035e-011
vernier = 0.0693659
Gmin = 6.92976e-011
vernier = 0.0924879
vernier = 0.123317
vernier = 0.0616586
vernier = 0.0308293
Gmin = 5.99542e-011
vernier = 0.0411057
Gmin = 5.46815e-011
vernier = 0.0548076
vernier = 0.0730768
Gmin = 4.68736e-011
vernier = 0.0974357
vernier = 0.0487178
vernier = 0.0243589
Gmin = 4.38551e-011
vernier = 0.0324786
vernier = 0.0433047
Gmin = 4.00167e-011
vernier = 0.0577396
vernier = 0.0769862
vernier = 0.0384931
Gmin = 3.59371e-011
vernier = 0.0192465
vernier = 0.025662
Gmin = 3.41988e-011
vernier = 0.0342161
vernier = 0.0456214
Gmin = 3.13625e-011
vernier = 0.0608285
vernier = 0.0304143
vernier = 0.0152071
Gmin = 2.96323e-011
vernier = 0.0202762
vernier = 0.0270349
Gmin = 2.81477e-011
vernier = 0.0360465
Gmin = 2.59636e-011
vernier = 0.048062
vernier = 0.024031
vernier = 0.0120155
vernier = 0.0160207
Gmin = 2.53735e-011
vernier = 0.0213609
Gmin = 2.41857e-011
vernier = 0.0284812
vernier = 0.0379749
Gmin = 2.2318e-011
vernier = 0.0506331
vernier = 0.0253166
vernier = 0.0126583
Gmin = 2.15569e-011
vernier = 0.0168777
vernier = 0.0225036
Gmin = 2.05527e-011
vernier = 0.0300048
vernier = 0.0400064
vernier = 0.0200032
Gmin = 1.94323e-011
vernier = 0.0100016
vernier = 0.0133355
Gmin = 1.89373e-011
vernier = 0.0177806
vernier = 0.0237075
Gmin = 1.81025e-011
vernier = 0.03161
Gmin = 1.6864e-011
vernier = 0.0421466
vernier = 0.0210733
vernier = 0.0105366
vernier = 0.0140489
Gmin = 1.65273e-011
vernier = 0.0187318
Gmin = 1.58467e-011
vernier = 0.0249757
vernier = 0.033301
vernier = 0.0166505
vernier = 0.00832524
Gmin = 1.52341e-011
vernier = 0.0111003
Gmin = 1.48588e-011
vernier = 0.0148004
vernier = 0.0197339
Gmin = 1.42498e-011
vernier = 0.0263119
vernier = 0.0350825
vernier = 0.0175412
Gmin = 1.3566e-011
vernier = 0.00877062
vernier = 0.0116942
Gmin = 1.32624e-011
vernier = 0.0155922
vernier = 0.0207896
Gmin = 1.27481e-011
vernier = 0.0277195
vernier = 0.0138597
vernier = 0.00692986
Gmin = 1.24218e-011
vernier = 0.00923982
vernier = 0.0123198
Gmin = 1.21339e-011
vernier = 0.0164263
Gmin = 1.16944e-011
vernier = 0.0219018
vernier = 0.0292024
vernier = 0.0146012
vernier = 0.00730059
Gmin = 1.12969e-011
vernier = 0.00973411
Gmin = 1.10524e-011
vernier = 0.0129788
vernier = 0.0173051
Gmin = 1.06541e-011
vernier = 0.0230734
vernier = 0.0307646
vernier = 0.0153823
Gmin = 1.02042e-011
vernier = 0.00769114
vernier = 0.0102549
Gmin = 1.00037e-011
vernier = 0.0136731
vernier = 0.0182308
Gmin = 9.66259e-012
vernier = 0.0243078
vernier = 0.0121539
vernier = 0.00607695
Gmin = 9.4453e-012
vernier = 0.00810259
vernier = 0.0108035
Gmin = 9.25298e-012
vernier = 0.0144046
Gmin = 8.95837e-012
vernier = 0.0192061
vernier = 0.0256082
vernier = 0.0128041
vernier = 0.00640204
Gmin = 8.69066e-012
vernier = 0.00853606
Gmin = 8.5255e-012
vernier = 0.0113814
vernier = 0.0151752
Gmin = 8.2554e-012
vernier = 0.0202336
vernier = 0.0101168
vernier = 0.0050584
Gmin = 8.1415e-012
vernier = 0.00674453
vernier = 0.00899271
Gmin = 7.98755e-012
vernier = 0.0119903
vernier = 0.015987
Gmin = 7.74817e-012
vernier = 0.021316
vernier = 0.010658
vernier = 0.00532901
Gmin = 7.59513e-012
vernier = 0.00710534
vernier = 0.00947379
Gmin = 7.45932e-012
vernier = 0.0126317
Gmin = 7.2506e-012
vernier = 0.0168423
vernier = 0.0224564
vernier = 0.0112282
vernier = 0.00561409
Gmin = 7.06019e-012
vernier = 0.00748545
Gmin = 6.94237e-012
vernier = 0.0099806
vernier = 0.0133075
Gmin = 6.74908e-012
vernier = 0.0177433
vernier = 0.00887164
vernier = 0.00443582
Gmin = 6.57945e-012
vernier = 0.00591443
Gmin = 6.49253e-012
vernier = 0.0078859
vernier = 0.0105145
Gmin = 6.34924e-012
vernier = 0.0140194
vernier = 0.0186925
vernier = 0.00934624
Gmin = 6.18478e-012
vernier = 0.00467312
vernier = 0.00623083
Gmin = 6.11062e-012
vernier = 0.00830777
vernier = 0.011077
Gmin = 5.98308e-012
vernier = 0.0147694
Gmin = 5.78785e-012
vernier = 0.0196925
vernier = 0.00984624
vernier = 0.00492312
vernier = 0.00656416
Gmin = 5.73353e-012
vernier = 0.00875221
Gmin = 5.62184e-012
vernier = 0.0116696
vernier = 0.0155595
Gmin = 5.4393e-012
vernier = 0.020746
vernier = 0.010373
vernier = 0.00518649
Gmin = 5.36237e-012
vernier = 0.00691532
vernier = 0.00922042
Gmin = 5.25843e-012
vernier = 0.0122939
vernier = 0.0163918
vernier = 0.00819592
Gmin = 5.13878e-012
vernier = 0.00409796
vernier = 0.00546395
Gmin = 5.0847e-012
vernier = 0.00728526
vernier = 0.00971368
Gmin = 4.9915e-012
vernier = 0.0129516
Gmin = 4.84835e-012
vernier = 0.0172688
vernier = 0.00863438
vernier = 0.00431719
vernier = 0.00575625
Gmin = 4.80842e-012
vernier = 0.007675
Gmin = 4.72617e-012
vernier = 0.0102333
vernier = 0.0136444
Gmin = 4.5913e-012
vernier = 0.0181926
vernier = 0.00909629
vernier = 0.00454814
Gmin = 4.5343e-012
vernier = 0.00606419
vernier = 0.00808559
Gmin = 4.45713e-012
vernier = 0.0107808
vernier = 0.0143744
Gmin = 4.33682e-012
vernier = 0.0191658
vernier = 0.00958291
vernier = 0.00479145
Gmin = 4.25971e-012
vernier = 0.0063886
vernier = 0.00851814
Gmin = 4.19116e-012
vernier = 0.0113575
Gmin = 4.08555e-012
vernier = 0.0151433
vernier = 0.00757167
vernier = 0.00378584
vernier = 0.00504778
Gmin = 4.05603e-012
vernier = 0.00673037
Gmin = 3.99511e-012
vernier = 0.00897383
vernier = 0.0119651
Gmin = 3.89494e-012
vernier = 0.0159535
vernier = 0.00797673
vernier = 0.00398837
Gmin = 3.8525e-012
vernier = 0.00531782
vernier = 0.00709043
Gmin = 3.79493e-012
vernier = 0.0094539
vernier = 0.0126052
Gmin = 3.70494e-012
vernier = 0.0168069
vernier = 0.00840346
vernier = 0.00420173
Gmin = 3.6471e-012
vernier = 0.00560231
vernier = 0.00746974
Gmin = 3.59558e-012
vernier = 0.00995965
Gmin = 3.51599e-012
vernier = 0.0132795
vernier = 0.017706
vernier = 0.00885302
vernier = 0.00442651
Gmin = 3.44295e-012
vernier = 0.00590201
Gmin = 3.39756e-012
vernier = 0.00786935
vernier = 0.0104925
Gmin = 3.32273e-012
vernier = 0.0139899
vernier = 0.00699497
vernier = 0.00349749
Gmin = 3.29095e-012
vernier = 0.00466331
vernier = 0.00621775
Gmin = 3.24779e-012
vernier = 0.00829033
vernier = 0.0110538
Gmin = 3.18014e-012
vernier = 0.0147384
vernier = 0.00736918
vernier = 0.00368459
Gmin = 3.13655e-012
vernier = 0.00491278
vernier = 0.00655038
Gmin = 3.09766e-012
vernier = 0.00873383
Gmin = 3.03744e-012
vernier = 0.0116451
vernier = 0.0155268
vernier = 0.0077634
vernier = 0.0038817
Gmin = 2.98202e-012
vernier = 0.0051756
Gmin = 2.94752e-012
vernier = 0.0069008
vernier = 0.00920106
Gmin = 2.89051e-012
vernier = 0.0122681
vernier = 0.0163574
vernier = 0.00817872
Gmin = 2.82487e-012
vernier = 0.00408936
vernier = 0.00545248
Gmin = 2.7952e-012
vernier = 0.00726997
vernier = 0.00969329
Gmin = 2.74408e-012
vernier = 0.0129244
Gmin = 2.66554e-012
vernier = 0.0172325
vernier = 0.00861625
vernier = 0.00430813
vernier = 0.00574417
Gmin = 2.64364e-012
vernier = 0.00765889
Gmin = 2.59851e-012
vernier = 0.0102118
vernier = 0.0136158
vernier = 0.0068079
vernier = 0.00340395
Gmin = 2.55688e-012
vernier = 0.0045386
Gmin = 2.53092e-012
vernier = 0.00605146
vernier = 0.00806861
Gmin = 2.48793e-012
vernier = 0.0107581
vernier = 0.0143442
vernier = 0.0071721
Gmin = 2.43831e-012
vernier = 0.00358605
vernier = 0.0047814
Gmin = 2.41584e-012
vernier = 0.00637519
vernier = 0.00850026
Gmin = 2.37704e-012
vernier = 0.0113337
Gmin = 2.31727e-012
vernier = 0.0151116
vernier = 0.00755578
vernier = 0.00377789
vernier = 0.00503719
Gmin = 2.30056e-012
vernier = 0.00671625
Gmin = 2.26608e-012
vernier = 0.00895499
vernier = 0.01194
Gmin = 2.20938e-012
vernier = 0.01592
vernier = 0.00795999
vernier = 0.00397999
Gmin = 2.18536e-012
vernier = 0.00530666
vernier = 0.00707554
Gmin = 2.15277e-012
vernier = 0.00943405
vernier = 0.0125787
Gmin = 2.10182e-012
vernier = 0.0167716
vernier = 0.00838582
vernier = 0.00419291
Gmin = 2.06908e-012
vernier = 0.00559055
vernier = 0.00745406
Gmin = 2.03991e-012
vernier = 0.00993874
Gmin = 1.99485e-012
vernier = 0.0132517
vernier = 0.00662583
vernier = 0.00331291
vernier = 0.00441722
Gmin = 1.98223e-012
vernier = 0.00588962
Gmin = 1.95615e-012
vernier = 0.00785283
vernier = 0.0104704
Gmin = 1.91316e-012
vernier = 0.0139606
vernier = 0.00698029
vernier = 0.00349014
Gmin = 1.8949e-012
vernier = 0.00465352
vernier = 0.0062047
Gmin = 1.87009e-012
vernier = 0.00827293
vernier = 0.0110306
Gmin = 1.83122e-012
vernier = 0.0147074
vernier = 0.00735371
vernier = 0.00367685
Gmin = 1.80618e-012
vernier = 0.00490247
vernier = 0.00653663
Gmin = 1.78383e-012
vernier = 0.0087155
Gmin = 1.74922e-012
vernier = 0.0116207
vernier = 0.0154942
vernier = 0.00774711
vernier = 0.00387355
Gmin = 1.71737e-012
vernier = 0.00516474
Gmin = 1.69754e-012
vernier = 0.00688631
vernier = 0.00918175
Gmin = 1.66478e-012
vernier = 0.0122423
vernier = 0.0163231
vernier = 0.00816155
Gmin = 1.62705e-012
vernier = 0.00408078
vernier = 0.00544103
Gmin = 1.61e-012
vernier = 0.00725471
vernier = 0.00967294
Gmin = 1.58061e-012
vernier = 0.0128973
vernier = 0.00644863
vernier = 0.00322431
Gmin = 1.56164e-012
vernier = 0.00429908
vernier = 0.00573211
Gmin = 1.54467e-012
vernier = 0.00764281
Gmin = 1.51836e-012
vernier = 0.0101904
vernier = 0.0135872
vernier = 0.00679361
vernier = 0.0033968
Gmin = 1.49409e-012
vernier = 0.00452907
Gmin = 1.47895e-012
vernier = 0.00603876
vernier = 0.00805168
Gmin = 1.45388e-012
vernier = 0.0107356
vernier = 0.0143141
vernier = 0.00715704
Gmin = 1.42495e-012
vernier = 0.00357852
vernier = 0.00477136
Gmin = 1.41184e-012
vernier = 0.00636181
vernier = 0.00848241
Gmin = 1.38921e-012
vernier = 0.0113099
Gmin = 1.35435e-012
vernier = 0.0150798
vernier = 0.00753992
vernier = 0.00376996
vernier = 0.00502661
Gmin = 1.34461e-012
vernier = 0.00670215
Gmin = 1.3245e-012
vernier = 0.00893619
vernier = 0.0119149
Gmin = 1.29143e-012
vernier = 0.0158866
vernier = 0.00794328
vernier = 0.00397164
Gmin = 1.27741e-012
vernier = 0.00529552
vernier = 0.00706069
Gmin = 1.2584e-012
vernier = 0.00941425
vernier = 0.0125523
Gmin = 1.22869e-012
vernier = 0.0167364
vernier = 0.00836822
vernier = 0.00418411
Gmin = 1.20958e-012
vernier = 0.00557881
vernier = 0.00743841
Gmin = 1.19257e-012
vernier = 0.00991788
Gmin = 1.16628e-012
vernier = 0.0132238
vernier = 0.0176318
vernier = 0.00881589
vernier = 0.00440794
Gmin = 1.14215e-012
vernier = 0.00587726
Gmin = 1.12716e-012
vernier = 0.00783634
vernier = 0.0104485
Gmin = 1.10243e-012
vernier = 0.0139313
vernier = 0.00696563
vernier = 0.00348282
Gmin = 1.09193e-012
vernier = 0.00464375
vernier = 0.00619167
Gmin = 1.07767e-012
vernier = 0.00825556
vernier = 0.0110074
Gmin = 1.05532e-012
vernier = 0.0146765
vernier = 0.00733827
vernier = 0.00366914
Gmin = 1.04091e-012
vernier = 0.00489218
vernier = 0.0065229
Gmin = 1.02806e-012
vernier = 0.0086972
Gmin = 1.00816e-012
vernier = 0.0115963
vernier = 0.0154617
vernier = 0.00773084
vernier = 0.00386542
Gmin = 9.89841e-013
vernier = 0.0051539
Gmin = 9.78435e-013
vernier = 0.00687186
vernier = 0.00916248
Gmin = 9.59587e-013
vernier = 0.0122166
vernier = 0.0162888
vernier = 0.00814442
Gmin = 9.37888e-013
vernier = 0.00407221
vernier = 0.00542961
Gmin = 9.28079e-013
vernier = 0.00723948
vernier = 0.00965264
Gmin = 9.11174e-013
vernier = 0.0128702
Gmin = 8.85204e-013
vernier = 0.0171602
vernier = 0.00858012
vernier = 0.00429006
vernier = 0.00572008
Gmin = 8.7796e-013
vernier = 0.00762677
Gmin = 8.63035e-013
vernier = 0.010169
vernier = 0.0135587
Gmin = 8.3856e-013
vernier = 0.0180782
vernier = 0.00903912
vernier = 0.00451956
Gmin = 8.28214e-013
vernier = 0.00602608
vernier = 0.00803477
Gmin = 8.14205e-013
vernier = 0.010713
vernier = 0.014284
Gmin = 7.92365e-013
vernier = 0.0190454
vernier = 0.00952269
vernier = 0.00476134
Gmin = 7.78364e-013
vernier = 0.00634846
vernier = 0.00846461
Gmin = 7.65916e-013
vernier = 0.0112861
Gmin = 7.46736e-013
vernier = 0.0150482
vernier = 0.0200642
vernier = 0.0100321
vernier = 0.00501606
Gmin = 7.29185e-013
vernier = 0.00668808
Gmin = 7.18303e-013
vernier = 0.00891743
vernier = 0.0118899
Gmin = 7.00404e-013
vernier = 0.0158532
vernier = 0.0211376
vernier = 0.0105688
Gmin = 6.79929e-013
vernier = 0.0052844
vernier = 0.00704587
Gmin = 6.70718e-013
vernier = 0.00939449
vernier = 0.012526
Gmin = 6.54911e-013
vernier = 0.0167013
Gmin = 6.30803e-013
vernier = 0.0222684
vernier = 0.0111342
vernier = 0.0055671
vernier = 0.0074228
Gmin = 6.24113e-013
vernier = 0.00989706
Gmin = 6.10384e-013
vernier = 0.0131961
vernier = 0.0175948
Gmin = 5.88026e-013
vernier = 0.0234597
vernier = 0.0117298
vernier = 0.00586492
Gmin = 5.78632e-013
vernier = 0.00781989
vernier = 0.0104265
Gmin = 5.65967e-013
vernier = 0.013902
vernier = 0.018536
Gmin = 5.46353e-013
vernier = 0.0247147
vernier = 0.0123573
vernier = 0.00617867
Gmin = 5.33864e-013
vernier = 0.00823823
vernier = 0.0109843
Gmin = 5.22814e-013
vernier = 0.0146457
Gmin = 5.05894e-013
vernier = 0.0195276
vernier = 0.0260368
vernier = 0.0130184
vernier = 0.00650921
Gmin = 4.90528e-013
vernier = 0.00867895
Gmin = 4.81051e-013
vernier = 0.0115719
vernier = 0.0154292
Gmin = 4.6556e-013
vernier = 0.0205723
vernier = 0.0274297
vernier = 0.0137149
Gmin = 4.47986e-013
vernier = 0.00685743
vernier = 0.00914324
Gmin = 4.40128e-013
vernier = 0.012191
vernier = 0.0162546
Gmin = 4.2672e-013
vernier = 0.0216729
Gmin = 4.0646e-013
vernier = 0.0288971
vernier = 0.0144486
vernier = 0.00722428
vernier = 0.00963237
Gmin = 4.00876e-013
vernier = 0.0128432
Gmin = 3.89474e-013
vernier = 0.0171242
vernier = 0.0228323
Gmin = 3.71073e-013
vernier = 0.030443
vernier = 0.0152215
vernier = 0.00761076
Gmin = 3.63403e-013
vernier = 0.0101477
vernier = 0.0135302
Gmin = 3.53118e-013
vernier = 0.0180403
vernier = 0.0240537
Gmin = 3.37329e-013
vernier = 0.0320716
vernier = 0.0160358
vernier = 0.00801791
Gmin = 3.27363e-013
vernier = 0.0106905
vernier = 0.0142541
Gmin = 3.18599e-013
vernier = 0.0190054
Gmin = 3.05291e-013
vernier = 0.0253405
vernier = 0.0337874
vernier = 0.0168937
vernier = 0.00844684
Gmin = 2.9332e-013
vernier = 0.0112624
Gmin = 2.8599e-013
vernier = 0.0150166
vernier = 0.0200221
Gmin = 2.74103e-013
vernier = 0.0266962
vernier = 0.0355949
vernier = 0.0177974
Gmin = 2.60761e-013
vernier = 0.00889872
vernier = 0.011865
Gmin = 2.54843e-013
vernier = 0.0158199
vernier = 0.0210932
Gmin = 2.44819e-013
vernier = 0.0281243
Gmin = 2.29854e-013
vernier = 0.0374991
vernier = 0.0187495
vernier = 0.00937477
vernier = 0.0124997
Gmin = 2.25766e-013
vernier = 0.0166662
Gmin = 2.17472e-013
vernier = 0.0222217
vernier = 0.0296289
Gmin = 2.04243e-013
vernier = 0.0395051
vernier = 0.0197526
vernier = 0.00987629
Gmin = 1.98785e-013
vernier = 0.0131684
vernier = 0.0175578
Gmin = 1.91518e-013
vernier = 0.0234104
vernier = 0.0312139
Gmin = 1.80488e-013
vernier = 0.0416185
Gmin = 1.64427e-013
vernier = 0.0554914
vernier = 0.0277457
vernier = 0.0138728
vernier = 0.0184971
Gmin = 1.60121e-013
vernier = 0.0246628
Gmin = 1.51501e-013
vernier = 0.0328837
vernier = 0.043845
Gmin = 1.38084e-013
vernier = 0.05846
vernier = 0.02923
vernier = 0.014615
Gmin = 1.32664e-013
vernier = 0.0194866
vernier = 0.0259822
Gmin = 1.25558e-013
vernier = 0.0346429
vernier = 0.0461905
Gmin = 1.15021e-013
vernier = 0.0615874
Gmin = 1.00234e-013
vernier = 0.0821165
Terminal Gmin changed to 1e-014
vernier = 0.0410582
vernier = 0.0547443
Gmin = 9.26901e-014
vernier = 0.0729924
Gmin = 7.87586e-014
vernier = 0.0973232
vernier = 0.0486616
vernier = 0.0243308
vernier = 0.032441
Gmin = 7.51819e-014
vernier = 0.0432547
Gmin = 6.82425e-014
vernier = 0.0576729
vernier = 0.0768972
Gmin = 5.80328e-014
vernier = 0.10253
vernier = 0.136706
Gmin = 4.48739e-014
vernier = 0.182275
vernier = 0.0911374
vernier = 0.0455687
Gmin = 3.7919e-014
vernier = 0.0607582
vernier = 0.081011
Gmin = 3.25326e-014
vernier = 0.108015
Gmin = 2.55892e-014
vernier = 0.144019
vernier = 0.192026
Gmin = 1.71565e-014
vernier = 0.256034
vernier = 0.341379
Terminal Gmin changed to 1e-015
Gmin = 1.07654e-014
vernier = 0.17069
vernier = 0.227586
Gmin = 7.00102e-015
vernier = 0.303448
vernier = 0.404597
Gmin = 3.33322e-015
vernier = 0.539463
Gmin = 1.06124e-015
vernier = 0.719284
Gmin = 0
Gmin stepping succeeded in finding the operating point.

Direct Newton iteration failed to find .op point.  (Use ".option noopiter" to skip.)
Starting Gmin stepping
Gmin = 10
Gmin = 1.07374
Gmin = 0.115292
Gmin = 0.0123794
Gmin = 0.00132923
Gmin = 0.000142725
Gmin = 1.5325e-005
Gmin = 1.6455e-006
Gmin = 1.76685e-007
Gmin = 1.89714e-008
Gmin = 2.03704e-009
vernier = 0.5
vernier = 0.25
Gmin = 8.18376e-010
vernier = 0.333333
vernier = 0.444444
vernier = 0.222222
vernier = 0.111111
Gmin = 4.76487e-010
vernier = 0.148148
Gmin = 3.46405e-010
vernier = 0.197531
vernier = 0.263374
vernier = 0.131687
vernier = 0.0658435
Gmin = 2.50142e-010
vernier = 0.0877914
Gmin = 2.06819e-010
vernier = 0.117055
vernier = 0.156073
vernier = 0.0780367
vernier = 0.0390184
Gmin = 1.70216e-010
vernier = 0.0520245
Gmin = 1.52006e-010
vernier = 0.0693659
vernier = 0.0924879
Gmin = 1.26376e-010
vernier = 0.123317
vernier = 0.0616586
vernier = 0.0308293
Gmin = 1.14432e-010
vernier = 0.0411057
vernier = 0.0548076
Gmin = 1.02527e-010
vernier = 0.0730768
vernier = 0.0974357
Gmin = 8.61948e-011
vernier = 0.0487178
vernier = 0.0243589
vernier = 0.0324786
Gmin = 8.36014e-011
vernier = 0.0433047
vernier = 0.0577396
Gmin = 7.5404e-011
vernier = 0.0769862
vernier = 0.0384931
vernier = 0.0192465
Gmin = 6.95191e-011
vernier = 0.025662
vernier = 0.0342161
Gmin = 6.53863e-011
vernier = 0.0456214
Gmin = 5.92059e-011
vernier = 0.0608285
vernier = 0.0304143
vernier = 0.0152071
vernier = 0.0202762
Gmin = 5.71484e-011
vernier = 0.0270349
Gmin = 5.38763e-011
vernier = 0.0360465
vernier = 0.048062
vernier = 0.024031
vernier = 0.0120155
Gmin = 5.07102e-011
vernier = 0.0160207
Gmin = 4.89669e-011
vernier = 0.0213609
vernier = 0.0284812
Gmin = 4.62428e-011
vernier = 0.0379749
vernier = 0.0189874
vernier = 0.00949371
Gmin = 4.35899e-011
vernier = 0.0126583
Gmin = 4.24011e-011
vernier = 0.0168777
vernier = 0.0225036
Gmin = 4.0525e-011
vernier = 0.0300048
vernier = 0.0400064
Gmin = 3.77241e-011
vernier = 0.0200032
vernier = 0.0100016
vernier = 0.0133355
Gmin = 3.72547e-011
vernier = 0.0177806
vernier = 0.0237075
Gmin = 3.57044e-011
vernier = 0.03161
vernier = 0.015805
vernier = 0.00790249
Gmin = 3.45283e-011
vernier = 0.0105366
vernier = 0.0140489
Gmin = 3.36687e-011
vernier = 0.0187318
Gmin = 3.23197e-011
vernier = 0.0249757
vernier = 0.033301
vernier = 0.0166505
vernier = 0.00832524
Gmin = 3.09898e-011
vernier = 0.0111003
Gmin = 3.02473e-011
vernier = 0.0148004
vernier = 0.0197339
Gmin = 2.90701e-011
vernier = 0.0263119
vernier = 0.0131559
vernier = 0.00657796
Gmin = 2.84564e-011
vernier = 0.00877062
vernier = 0.0116942
Gmin = 2.77943e-011
vernier = 0.0155922
vernier = 0.0207896
Gmin = 2.67771e-011
vernier = 0.0277195
vernier = 0.0138597
vernier = 0.00692986
Gmin = 2.60018e-011
vernier = 0.00923982
vernier = 0.0123198
Gmin = 2.54332e-011
vernier = 0.0164263
Gmin = 2.45371e-011
vernier = 0.0219018
vernier = 0.0292024
vernier = 0.0146012
vernier = 0.00730059
Gmin = 2.36491e-011
vernier = 0.00973411
Gmin = 2.31514e-011
vernier = 0.0129788
vernier = 0.0173051
Gmin = 2.23592e-011
vernier = 0.0230734
vernier = 0.0115367
vernier = 0.00576836
Gmin = 2.19446e-011
vernier = 0.00769114
vernier = 0.0102549
Gmin = 2.14962e-011
vernier = 0.0136731
vernier = 0.0182308
Gmin = 2.08045e-011
vernier = 0.0243078
vernier = 0.0121539
vernier = 0.00607695
Gmin = 2.02752e-011
vernier = 0.00810259
vernier = 0.0108035
Gmin = 1.98858e-011
vernier = 0.0144046
Gmin = 1.92699e-011
vernier = 0.0192061
vernier = 0.00960307
vernier = 0.00480153
vernier = 0.00640204
Gmin = 1.90555e-011
vernier = 0.00853606
Gmin = 1.87033e-011
vernier = 0.0113814
vernier = 0.0151752
Gmin = 1.81407e-011
vernier = 0.0202336
vernier = 0.0101168
vernier = 0.0050584
Gmin = 1.78454e-011
vernier = 0.00674453
vernier = 0.00899271
Gmin = 1.75251e-011
vernier = 0.0119903
vernier = 0.015987
Gmin = 1.70296e-011
vernier = 0.021316
vernier = 0.010658
vernier = 0.00532901
Gmin = 1.66489e-011
vernier = 0.00710534
vernier = 0.00947379
Gmin = 1.63681e-011
vernier = 0.0126317
Gmin = 1.59227e-011
vernier = 0.0168423
vernier = 0.00842114
vernier = 0.00421057
vernier = 0.00561409
Gmin = 1.57671e-011
vernier = 0.00748545
Gmin = 1.55113e-011
vernier = 0.0099806
vernier = 0.0133075
Gmin = 1.51013e-011
vernier = 0.0177433
vernier = 0.00887164
vernier = 0.00443582
Gmin = 1.48854e-011
vernier = 0.00591443
vernier = 0.0078859
Gmin = 1.46509e-011
vernier = 0.0105145
vernier = 0.0140194
Gmin = 1.42869e-011
vernier = 0.0186925
vernier = 0.00934624
vernier = 0.00467312
Gmin = 1.40064e-011
vernier = 0.00623083
vernier = 0.00830777
Gmin = 1.3799e-011
vernier = 0.011077
Gmin = 1.34691e-011
vernier = 0.0147694
vernier = 0.00738468
vernier = 0.00369234
vernier = 0.00492312
Gmin = 1.33536e-011
vernier = 0.00656416
Gmin = 1.31634e-011
vernier = 0.00875221
vernier = 0.0116696
Gmin = 1.28577e-011
vernier = 0.0155595
vernier = 0.00777973
vernier = 0.00388987
Gmin = 1.26964e-011
vernier = 0.00518649
vernier = 0.00691532
Gmin = 1.25208e-011
vernier = 0.00922042
vernier = 0.0122939
Gmin = 1.22475e-011
vernier = 0.0163918
vernier = 0.00819592
vernier = 0.00409796
Gmin = 1.20364e-011
vernier = 0.00546395
vernier = 0.00728526
Gmin = 1.18799e-011
vernier = 0.00971368
Gmin = 1.16304e-011
vernier = 0.0129516
vernier = 0.00647579
vernier = 0.00323789
vernier = 0.00431719
Gmin = 1.15429e-011
vernier = 0.00575625
Gmin = 1.13986e-011
vernier = 0.007675
vernier = 0.0102333
Gmin = 1.11661e-011
vernier = 0.0136444
vernier = 0.00682222
vernier = 0.00341111
Gmin = 1.10432e-011
vernier = 0.00454814
vernier = 0.00606419
Gmin = 1.09091e-011
vernier = 0.00808559
vernier = 0.0107808
Gmin = 1.07e-011
vernier = 0.0143744
vernier = 0.00718718
vernier = 0.00359359
Gmin = 1.0538e-011
vernier = 0.00479145
vernier = 0.0063886
Gmin = 1.04178e-011
vernier = 0.00851814
Gmin = 1.02257e-011
vernier = 0.0113575
vernier = 0.0151433
vernier = 0.00757167
vernier = 0.00378584
Gmin = 1.00318e-011
vernier = 0.00504778
Gmin = 9.92172e-012
vernier = 0.00673037
vernier = 0.00897383
Gmin = 9.74403e-012
vernier = 0.0119651
vernier = 0.00598255
vernier = 0.00299128
Gmin = 9.64985e-012
vernier = 0.00398837
vernier = 0.00531782
Gmin = 9.54702e-012
vernier = 0.00709043
vernier = 0.0094539
Gmin = 9.38635e-012
vernier = 0.0126052
vernier = 0.0063026
vernier = 0.0031513
Gmin = 9.26161e-012
vernier = 0.00420173
vernier = 0.00560231
Gmin = 9.16889e-012
vernier = 0.00746974
Gmin = 9.02041e-012
vernier = 0.00995965
vernier = 0.0132795
vernier = 0.00663977
vernier = 0.00331988
Gmin = 8.87025e-012
vernier = 0.00442651
Gmin = 8.78482e-012
vernier = 0.00590201
vernier = 0.00786935
Gmin = 8.64669e-012
vernier = 0.0104925
vernier = 0.00524623
vernier = 0.00262311
Gmin = 8.57335e-012
vernier = 0.00349749
vernier = 0.00466331
Gmin = 8.49318e-012
vernier = 0.00621775
vernier = 0.00829033
Gmin = 8.36769e-012
vernier = 0.0110538
vernier = 0.00552688
vernier = 0.00276344
Gmin = 8.27008e-012
vernier = 0.00368459
vernier = 0.00491278
Gmin = 8.19743e-012
vernier = 0.00655038
Gmin = 8.08089e-012
vernier = 0.00873383
vernier = 0.0116451
vernier = 0.00582255
vernier = 0.00291128
Gmin = 7.96279e-012
vernier = 0.0038817
Gmin = 7.89549e-012
vernier = 0.0051756
vernier = 0.0069008
Gmin = 7.78651e-012
vernier = 0.00920106
vernier = 0.0122681
Gmin = 7.61693e-012
vernier = 0.00613404
vernier = 0.00306702
vernier = 0.00408936
Gmin = 7.58777e-012
vernier = 0.00545248
vernier = 0.00726997
Gmin = 7.48936e-012
vernier = 0.00969329
vernier = 0.00484665
vernier = 0.00242332
Gmin = 7.41269e-012
vernier = 0.0032311
vernier = 0.00430813
Gmin = 7.35555e-012
vernier = 0.00574417
Gmin = 7.26376e-012
vernier = 0.00765889
vernier = 0.0102118
vernier = 0.00510592
vernier = 0.00255296
Gmin = 7.17057e-012
vernier = 0.00340395
Gmin = 7.1174e-012
vernier = 0.0045386
vernier = 0.00605146
Gmin = 7.03116e-012
vernier = 0.00806861
vernier = 0.0107581
Gmin = 6.89668e-012
vernier = 0.00537907
vernier = 0.00268954
vernier = 0.00358605
Gmin = 6.87353e-012
vernier = 0.0047814
vernier = 0.00637519
Gmin = 6.79528e-012
vernier = 0.00850026
Gmin = 6.67021e-012
vernier = 0.0113337
vernier = 0.00566684
vernier = 0.00283342
vernier = 0.00377789
Gmin = 6.62629e-012
vernier = 0.00503719
Gmin = 6.55371e-012
vernier = 0.00671625
vernier = 0.00895499
vernier = 0.0044775
vernier = 0.00223875
Gmin = 6.47991e-012
vernier = 0.002985
Gmin = 6.43775e-012
vernier = 0.00397999
vernier = 0.00530666
Gmin = 6.3693e-012
vernier = 0.00707554
vernier = 0.00943405
Gmin = 6.26233e-012
vernier = 0.00471703
vernier = 0.00235851
vernier = 0.00314468
Gmin = 6.24389e-012
vernier = 0.00419291
vernier = 0.00559055
Gmin = 6.18151e-012
vernier = 0.00745406
Gmin = 6.08162e-012
vernier = 0.00993874
vernier = 0.00496937
vernier = 0.00248469
vernier = 0.00331291
Gmin = 6.04648e-012
vernier = 0.00441722
Gmin = 5.98836e-012
vernier = 0.00588962
vernier = 0.00785283
Gmin = 5.8944e-012
vernier = 0.0104704
vernier = 0.00523522
vernier = 0.00261761
Gmin = 5.84451e-012
vernier = 0.00349014
vernier = 0.00465352
Gmin = 5.78997e-012
vernier = 0.0062047
vernier = 0.00827293
Gmin = 5.7046e-012
vernier = 0.00413646
vernier = 0.00206823
vernier = 0.00275764
Gmin = 5.68987e-012
vernier = 0.00367685
vernier = 0.00490247
Gmin = 5.63999e-012
vernier = 0.00653663
Gmin = 5.55997e-012
vernier = 0.0087155
vernier = 0.00435775
vernier = 0.00217887
vernier = 0.00290517
Gmin = 5.53179e-012
vernier = 0.00387355
Gmin = 5.48514e-012
vernier = 0.00516474
vernier = 0.00688631
Gmin = 5.40958e-012
vernier = 0.00918175
vernier = 0.00459087
vernier = 0.00229544
Gmin = 5.3694e-012
vernier = 0.00306058
vernier = 0.00408078
Gmin = 5.32544e-012
vernier = 0.00544103
vernier = 0.00725471
Gmin = 5.25651e-012
vernier = 0.00967294
vernier = 0.00483647
vernier = 0.00241824
Gmin = 5.20281e-012
vernier = 0.00322431
vernier = 0.00429908
Gmin = 5.16279e-012
vernier = 0.00573211
Gmin = 5.0985e-012
vernier = 0.00764281
vernier = 0.0101904
vernier = 0.00509521
vernier = 0.0025476
Gmin = 5.03322e-012
vernier = 0.0033968
Gmin = 4.99598e-012
vernier = 0.00452907
vernier = 0.00603876
Gmin = 4.93557e-012
vernier = 0.00805168
vernier = 0.00402584
vernier = 0.00201292
Gmin = 4.90341e-012
vernier = 0.00268389
vernier = 0.00357852
Gmin = 4.86818e-012
vernier = 0.00477136
vernier = 0.00636181
Gmin = 4.81288e-012
vernier = 0.00848241
vernier = 0.00424121
vernier = 0.0021206
Gmin = 4.76973e-012
vernier = 0.00282747
vernier = 0.00376996
Gmin = 4.73754e-012
vernier = 0.00502661
Gmin = 4.68576e-012
vernier = 0.00670215
vernier = 0.00893619
vernier = 0.0044681
vernier = 0.00223405
Gmin = 4.63311e-012
vernier = 0.00297873
Gmin = 4.60303e-012
vernier = 0.00397164
vernier = 0.00529552
Gmin = 4.55418e-012
vernier = 0.00706069
vernier = 0.00941425
Gmin = 4.47786e-012
vernier = 0.00470712
vernier = 0.00235356
vernier = 0.00313808
Gmin = 4.4647e-012
vernier = 0.00418411
vernier = 0.00557881
Gmin = 4.42019e-012
vernier = 0.00743841
vernier = 0.00371921
vernier = 0.0018596
Gmin = 4.38541e-012
vernier = 0.00247947
vernier = 0.00330596
Gmin = 4.35945e-012
vernier = 0.00440794
Gmin = 4.31763e-012
vernier = 0.00587726
vernier = 0.00783634
vernier = 0.00391817
vernier = 0.00195909
Gmin = 4.27505e-012
vernier = 0.00261211
Gmin = 4.2507e-012
vernier = 0.00348282
vernier = 0.00464375
Gmin = 4.21112e-012
vernier = 0.00619167
vernier = 0.00825556
Gmin = 4.14916e-012
vernier = 0.00412778
vernier = 0.00206389
vernier = 0.00275185
Gmin = 4.13847e-012
vernier = 0.00366914
vernier = 0.00489218
Gmin = 4.10226e-012
vernier = 0.0065229
Gmin = 4.04419e-012
vernier = 0.0086972
vernier = 0.0043486
vernier = 0.0021743
vernier = 0.00289907
Gmin = 4.02373e-012
vernier = 0.00386542
Gmin = 3.98987e-012
vernier = 0.0051539
vernier = 0.00687186
Gmin = 3.93502e-012
vernier = 0.00916248
vernier = 0.00458124
vernier = 0.00229062
Gmin = 3.90586e-012
vernier = 0.00305416
vernier = 0.00407221
Gmin = 3.87394e-012
vernier = 0.00542961
vernier = 0.00723948
Gmin = 3.82391e-012
vernier = 0.00361974
vernier = 0.00180987
vernier = 0.00241316
Gmin = 3.81526e-012
vernier = 0.00321754
vernier = 0.00429006
Gmin = 3.78598e-012
vernier = 0.00572008
Gmin = 3.73893e-012
vernier = 0.00762677
vernier = 0.00381338
vernier = 0.00190669
vernier = 0.00254226
Gmin = 3.72234e-012
vernier = 0.00338967
Gmin = 3.69485e-012
vernier = 0.00451956
vernier = 0.00602608
Gmin = 3.65027e-012
vernier = 0.00803477
vernier = 0.00401739
vernier = 0.00200869
Gmin = 3.62653e-012
vernier = 0.00267826
vernier = 0.00357101
Gmin = 3.60053e-012
vernier = 0.00476134
vernier = 0.00634846
Gmin = 3.55972e-012
vernier = 0.00846461
vernier = 0.0042323
vernier = 0.00211615
Gmin = 3.52787e-012
vernier = 0.00282153
vernier = 0.00376205
Gmin = 3.50411e-012
vernier = 0.00501606
Gmin = 3.46589e-012
vernier = 0.00668808
vernier = 0.00891743
vernier = 0.00445872
vernier = 0.00222936
Gmin = 3.42703e-012
vernier = 0.00297248
Gmin = 3.40482e-012
vernier = 0.0039633
vernier = 0.0052844
Gmin = 3.36877e-012
vernier = 0.00704587
vernier = 0.00352293
vernier = 0.00176147
Gmin = 3.34955e-012
vernier = 0.00234862
vernier = 0.0031315
Gmin = 3.32848e-012
vernier = 0.00417533
vernier = 0.0055671
Gmin = 3.29537e-012
vernier = 0.0074228
vernier = 0.0037114
vernier = 0.0018557
Gmin = 3.2695e-012
vernier = 0.00247427
vernier = 0.00329902
Gmin = 3.25018e-012
vernier = 0.00439869
Gmin = 3.21907e-012
vernier = 0.00586492
vernier = 0.00781989
vernier = 0.00390995
vernier = 0.00195497
Gmin = 3.18739e-012
vernier = 0.00260663
Gmin = 3.16927e-012
vernier = 0.00347551
vernier = 0.00463401
Gmin = 3.13982e-012
vernier = 0.00617867
vernier = 0.00823823
Gmin = 3.09372e-012
vernier = 0.00411911
vernier = 0.00205956
vernier = 0.00274608
Gmin = 3.08576e-012
vernier = 0.00366143
vernier = 0.00488191
Gmin = 3.05882e-012
vernier = 0.00650921
Gmin = 3.01561e-012
vernier = 0.00867895
vernier = 0.00433947
vernier = 0.00216974
vernier = 0.00289298
Gmin = 3.00039e-012
vernier = 0.00385731
Gmin = 2.97519e-012
vernier = 0.00514308
vernier = 0.00685743
vernier = 0.00342872
vernier = 0.00171436
Gmin = 2.94949e-012
vernier = 0.00228581
Gmin = 2.93479e-012
vernier = 0.00304775
vernier = 0.00406366
Gmin = 2.91086e-012
vernier = 0.00541821
vernier = 0.00722428
Gmin = 2.87334e-012
vernier = 0.00361214
vernier = 0.00180607
vernier = 0.00240809
Gmin = 2.86686e-012
vernier = 0.00321079
vernier = 0.00428105
Gmin = 2.8449e-012
vernier = 0.00570807
Gmin = 2.80962e-012
vernier = 0.00761076
vernier = 0.00380538
vernier = 0.00190269
vernier = 0.00253692
Gmin = 2.79718e-012
vernier = 0.00338256
Gmin = 2.77657e-012
vernier = 0.00451008
vernier = 0.00601343
Gmin = 2.74313e-012
vernier = 0.00801791
vernier = 0.00400895
vernier = 0.00200448
Gmin = 2.72533e-012
vernier = 0.00267264
vernier = 0.00356351
Gmin = 2.70584e-012
vernier = 0.00475135
vernier = 0.00633513
Gmin = 2.67523e-012
vernier = 0.00844684
vernier = 0.00422342
vernier = 0.00211171
Gmin = 2.65134e-012
vernier = 0.00281561
vernier = 0.00375415
Gmin = 2.63352e-012
vernier = 0.00500553
Gmin = 2.60486e-012
vernier = 0.00667404
vernier = 0.00333702
vernier = 0.00166851
vernier = 0.00222468
Gmin = 2.59474e-012
vernier = 0.00296624
Gmin = 2.57797e-012
vernier = 0.00395498
vernier = 0.00527331
Gmin = 2.55072e-012
vernier = 0.00703108
vernier = 0.00351554
vernier = 0.00175777
Gmin = 2.5362e-012
vernier = 0.00234369
vernier = 0.00312492
Gmin = 2.52028e-012
vernier = 0.00416656
vernier = 0.00555541
Gmin = 2.49526e-012
vernier = 0.00740722
vernier = 0.00370361
vernier = 0.0018518
Gmin = 2.47571e-012
vernier = 0.00246907
vernier = 0.00329209
Gmin = 2.46112e-012
vernier = 0.00438946
Gmin = 2.43761e-012
vernier = 0.00585261
vernier = 0.00780348
vernier = 0.00390174
vernier = 0.00195087
Gmin = 2.41367e-012
vernier = 0.00260116
Gmin = 2.39998e-012
vernier = 0.00346821
vernier = 0.00462428
Gmin = 2.37772e-012
vernier = 0.0061657
vernier = 0.00822094
Gmin = 2.34288e-012
vernier = 0.00411047
vernier = 0.00205523
vernier = 0.00274031
Gmin = 2.33687e-012
vernier = 0.00365375
vernier = 0.00487166
Gmin = 2.31651e-012
vernier = 0.00649555
vernier = 0.00324777
vernier = 0.00162389
Gmin = 2.30059e-012
vernier = 0.00216518
vernier = 0.00288691
Gmin = 2.28869e-012
vernier = 0.00384921
Gmin = 2.26951e-012
vernier = 0.00513228
vernier = 0.00684304
vernier = 0.00342152
vernier = 0.00171076
Gmin = 2.24995e-012
vernier = 0.00228101
Gmin = 2.23875e-012
vernier = 0.00304135
vernier = 0.00405513
Gmin = 2.22054e-012
vernier = 0.00540684
vernier = 0.00720912
Gmin = 2.19198e-012
vernier = 0.00360456
vernier = 0.00180228
vernier = 0.00240304
Gmin = 2.18704e-012
vernier = 0.00320405
vernier = 0.00427207
Gmin = 2.17033e-012
vernier = 0.00569609
Gmin = 2.14347e-012
vernier = 0.00759478
vernier = 0.00379739
vernier = 0.0018987
vernier = 0.00253159
Gmin = 2.134e-012
vernier = 0.00337546
Gmin = 2.1183e-012
vernier = 0.00450061
vernier = 0.00600081
Gmin = 2.09285e-012
vernier = 0.00800108
vernier = 0.00400054
vernier = 0.00200027
Gmin = 2.0793e-012
vernier = 0.00266702
vernier = 0.00355603
Gmin = 2.06445e-012
vernier = 0.00474137
vernier = 0.00632183
Gmin = 2.04115e-012
vernier = 0.00842911
vernier = 0.00421455
vernier = 0.00210728
Gmin = 2.02296e-012
vernier = 0.0028097
vernier = 0.00374627
Gmin = 2.0094e-012
vernier = 0.00499502
Gmin = 1.98757e-012
vernier = 0.00666003
vernier = 0.00333001
vernier = 0.00166501
vernier = 0.00222001
Gmin = 1.97987e-012
vernier = 0.00296001
Gmin = 1.96709e-012
vernier = 0.00394668
vernier = 0.00526224
Gmin = 1.94635e-012
vernier = 0.00701632
vernier = 0.00350816
vernier = 0.00175408
Gmin = 1.93529e-012
vernier = 0.00233877
vernier = 0.00311836
Gmin = 1.92317e-012
vernier = 0.00415781
vernier = 0.00554375
Gmin = 1.90412e-012
vernier = 0.00739167
vernier = 0.00369583
vernier = 0.00184792
Gmin = 1.88923e-012
vernier = 0.00246389
vernier = 0.00328518
Gmin = 1.87811e-012
vernier = 0.00438024
Gmin = 1.86021e-012
vernier = 0.00584032
vernier = 0.0077871
vernier = 0.00389355
vernier = 0.00194677
Gmin = 1.84198e-012
vernier = 0.0025957
Gmin = 1.83156e-012
vernier = 0.00346093
vernier = 0.00461457
Gmin = 1.81461e-012
vernier = 0.00615276
vernier = 0.00820368
Gmin = 1.78808e-012
vernier = 0.00410184
vernier = 0.00205092
vernier = 0.00273456
Gmin = 1.7835e-012
vernier = 0.00364608
vernier = 0.00486144
Gmin = 1.76799e-012
vernier = 0.00648191
vernier = 0.00324096
vernier = 0.00162048
Gmin = 1.75586e-012
vernier = 0.00216064
vernier = 0.00288085
Gmin = 1.7468e-012
vernier = 0.00384113
Gmin = 1.73219e-012
vernier = 0.00512151
vernier = 0.00682867
vernier = 0.00341434
vernier = 0.00170717
Gmin = 1.71729e-012
vernier = 0.00227622
Gmin = 1.70877e-012
vernier = 0.00303496
vernier = 0.00404662
Gmin = 1.69489e-012
vernier = 0.00539549
vernier = 0.00719398
Gmin = 1.67314e-012
vernier = 0.00359699
vernier = 0.0017985
vernier = 0.00239799
Gmin = 1.66938e-012
vernier = 0.00319732
vernier = 0.0042631
Gmin = 1.65664e-012
vernier = 0.00568413
Gmin = 1.63619e-012
vernier = 0.00757884
vernier = 0.00378942
vernier = 0.00189471
vernier = 0.00252628
Gmin = 1.62897e-012
vernier = 0.00336837
Gmin = 1.61702e-012
vernier = 0.00449116
vernier = 0.00598821
Gmin = 1.59763e-012
vernier = 0.00798428
vernier = 0.00399214
vernier = 0.00199607
Gmin = 1.58731e-012
vernier = 0.00266143
vernier = 0.00354857
Gmin = 1.576e-012
vernier = 0.00473142
vernier = 0.00630856
Gmin = 1.55824e-012
vernier = 0.00841141
vernier = 0.00420571
vernier = 0.00210285
Gmin = 1.54439e-012
vernier = 0.0028038
vernier = 0.0037384
Gmin = 1.53405e-012
vernier = 0.00498454
Gmin = 1.51743e-012
vernier = 0.00664605
vernier = 0.00332302
vernier = 0.00166151
vernier = 0.00221535
Gmin = 1.51156e-012
vernier = 0.0029538
Gmin = 1.50182e-012
vernier = 0.0039384
vernier = 0.00525119
Gmin = 1.48602e-012
vernier = 0.00700159
vernier = 0.00350079
vernier = 0.0017504
Gmin = 1.4776e-012
vernier = 0.00233386
vernier = 0.00311182
Gmin = 1.46836e-012
vernier = 0.00414909
vernier = 0.00553211
Gmin = 1.45384e-012
vernier = 0.00737615
vernier = 0.00368808
vernier = 0.00184404
Gmin = 1.4425e-012
vernier = 0.00245872
vernier = 0.00327829
Gmin = 1.43403e-012
vernier = 0.00437105
Gmin = 1.42039e-012
vernier = 0.00582806
vernier = 0.00777075
vernier = 0.00388537
vernier = 0.00194269
Gmin = 1.4065e-012
vernier = 0.00259025
Gmin = 1.39856e-012
vernier = 0.00345366
vernier = 0.00460489
Gmin = 1.38564e-012
vernier = 0.00613985
vernier = 0.00818646
Gmin = 1.36542e-012
vernier = 0.00409323
vernier = 0.00204661
vernier = 0.00272882
Gmin = 1.36193e-012
vernier = 0.00363842
vernier = 0.00485123
Gmin = 1.35012e-012
vernier = 0.00646831
Gmin = 1.33116e-012
vernier = 0.00862441
vernier = 0.0043122
vernier = 0.0021561
vernier = 0.0028748
Gmin = 1.32448e-012
vernier = 0.00383307
Gmin = 1.31343e-012
vernier = 0.00511076
vernier = 0.00681434
vernier = 0.00340717
vernier = 0.00170358
Gmin = 1.30216e-012
vernier = 0.00227145
Gmin = 1.29571e-012
vernier = 0.00302859
vernier = 0.00403812
Gmin = 1.28521e-012
vernier = 0.00538416
vernier = 0.00717888
Gmin = 1.26875e-012
vernier = 0.00358944
vernier = 0.00179472
vernier = 0.00239296
Gmin = 1.2659e-012
vernier = 0.00319061
vernier = 0.00425415
Gmin = 1.25627e-012
vernier = 0.0056722
Gmin = 1.24078e-012
vernier = 0.00756293
vernier = 0.00378146
vernier = 0.00189073
vernier = 0.00252098
Gmin = 1.23532e-012
vernier = 0.0033613
Gmin = 1.22628e-012
vernier = 0.00448173
vernier = 0.00597564
Gmin = 1.21161e-012
vernier = 0.00796752
vernier = 0.00398376
vernier = 0.00199188
Gmin = 1.20379e-012
vernier = 0.00265584
vernier = 0.00354112
Gmin = 1.19523e-012
vernier = 0.00472149
vernier = 0.00629532
Gmin = 1.1818e-012
vernier = 0.00839376
vernier = 0.00419688
vernier = 0.00209844
Gmin = 1.17131e-012
vernier = 0.00279792
vernier = 0.00373056
Gmin = 1.16349e-012
vernier = 0.00497407
Gmin = 1.15091e-012
vernier = 0.0066321
vernier = 0.00884279
vernier = 0.0044214
vernier = 0.0022107
Gmin = 1.13811e-012
vernier = 0.0029476
Gmin = 1.13079e-012
vernier = 0.00393013
vernier = 0.00524017
Gmin = 1.11892e-012
vernier = 0.00698689
vernier = 0.00349345
vernier = 0.00174672
Gmin = 1.11259e-012
vernier = 0.00232896
vernier = 0.00310528
Gmin = 1.10565e-012
vernier = 0.00414038
vernier = 0.0055205
Gmin = 1.09474e-012
vernier = 0.00736067
vernier = 0.00368033
vernier = 0.00184017
Gmin = 1.08622e-012
vernier = 0.00245355
vernier = 0.00327141
Gmin = 1.07985e-012
vernier = 0.00436187
Gmin = 1.0696e-012
vernier = 0.00581583
vernier = 0.00775444
vernier = 0.00387722
vernier = 0.00193861
Gmin = 1.05917e-012
vernier = 0.00258481
Gmin = 1.0532e-012
vernier = 0.00344641
vernier = 0.00459522
Gmin = 1.04349e-012
vernier = 0.00612696
vernier = 0.00816927
Gmin = 1.0283e-012
vernier = 0.00408464
vernier = 0.00204232
vernier = 0.00272309
Gmin = 1.02567e-012
vernier = 0.00363079
vernier = 0.00484105
Gmin = 1.01679e-012
vernier = 0.00645473
Gmin = 1.00255e-012
vernier = 0.0086063
vernier = 0.00430315
vernier = 0.00215158
vernier = 0.00286877
Gmin = 9.9753e-013
vernier = 0.00382502
Gmin = 9.89222e-013
vernier = 0.00510003
vernier = 0.00680003
Gmin = 9.75765e-013
vernier = 0.00906671
vernier = 0.00453336
vernier = 0.00226668
Gmin = 9.68608e-013
vernier = 0.00302224
vernier = 0.00402965
Gmin = 9.60776e-013
vernier = 0.00537286
vernier = 0.00716381
Gmin = 9.48496e-013
vernier = 0.00955175
vernier = 0.00477587
vernier = 0.00238794
Gmin = 9.38926e-013
vernier = 0.00318392
vernier = 0.00424522
Gmin = 9.31794e-013
vernier = 0.00566029
Gmin = 9.20335e-013
vernier = 0.00754705
vernier = 0.00377353
vernier = 0.00188676
vernier = 0.00251568
Gmin = 9.16294e-013
vernier = 0.00335424
Gmin = 9.09598e-013
vernier = 0.00447232
vernier = 0.0059631
Gmin = 8.98737e-013
vernier = 0.00795079
vernier = 0.0039754
vernier = 0.0019877
Gmin = 8.92953e-013
vernier = 0.00265026
vernier = 0.00353368
Gmin = 8.86618e-013
vernier = 0.00471158
vernier = 0.0062821
Gmin = 8.76672e-013
vernier = 0.00837614
vernier = 0.00418807
vernier = 0.00209403
Gmin = 8.6891e-013
vernier = 0.00279204
vernier = 0.00372273
Gmin = 8.63119e-013
vernier = 0.00496363
Gmin = 8.53803e-013
vernier = 0.00661817
vernier = 0.00882423
vernier = 0.00441212
vernier = 0.00220606
Gmin = 8.44328e-013
vernier = 0.00294141
Gmin = 8.38915e-013
vernier = 0.00392188
vernier = 0.00522917
Gmin = 8.30124e-013
vernier = 0.00697222
vernier = 0.0092963
Gmin = 8.16384e-013
vernier = 0.00464815
vernier = 0.00232407
vernier = 0.00309876
Gmin = 8.14015e-013
vernier = 0.00413169
vernier = 0.00550891
Gmin = 8.06001e-013
vernier = 0.00734522
Gmin = 7.93165e-013
vernier = 0.00979362
vernier = 0.00489681
vernier = 0.0024484
vernier = 0.00326454
Gmin = 7.88649e-013
vernier = 0.00435272
Gmin = 7.81179e-013
vernier = 0.00580362
vernier = 0.00773816
Gmin = 7.69099e-013
vernier = 0.0103175
vernier = 0.00515877
vernier = 0.00257939
Gmin = 7.62683e-013
vernier = 0.00343918
vernier = 0.00458557
Gmin = 7.55669e-013
vernier = 0.0061141
vernier = 0.00815212
Gmin = 7.44689e-013
vernier = 0.00407606
vernier = 0.00203803
vernier = 0.00271737
Gmin = 7.42794e-013
vernier = 0.00362316
vernier = 0.00483089
Gmin = 7.36377e-013
vernier = 0.00644118
Gmin = 7.26081e-013
vernier = 0.00858824
vernier = 0.00429412
vernier = 0.00214706
vernier = 0.00286274
Gmin = 7.22454e-013
vernier = 0.00381699
Gmin = 7.1645e-013
vernier = 0.00508932
vernier = 0.00678576
Gmin = 7.06724e-013
vernier = 0.00904768
vernier = 0.00452384
vernier = 0.00226192
Gmin = 7.01551e-013
vernier = 0.00301589
vernier = 0.00402119
Gmin = 6.9589e-013
vernier = 0.00536158
vernier = 0.00714878
Gmin = 6.87014e-013
vernier = 0.0095317
vernier = 0.00476585
vernier = 0.00238292
Gmin = 6.80097e-013
vernier = 0.00317723
vernier = 0.00423631
Gmin = 6.74942e-013
vernier = 0.00564841
Gmin = 6.66659e-013
vernier = 0.00753121
vernier = 0.0100416
vernier = 0.00502081
vernier = 0.0025104
Gmin = 6.58248e-013
vernier = 0.0033472
Gmin = 6.53448e-013
vernier = 0.00446294
vernier = 0.00595058
Gmin = 6.45662e-013
vernier = 0.0079341
vernier = 0.0105788
Gmin = 6.33516e-013
vernier = 0.0052894
vernier = 0.0026447
vernier = 0.00352627
Gmin = 6.31424e-013
vernier = 0.00470169
vernier = 0.00626892
Gmin = 6.24356e-013
vernier = 0.00835855
Gmin = 6.13054e-013
vernier = 0.0111447
vernier = 0.00557237
vernier = 0.00278618
vernier = 0.00371491
Gmin = 6.09084e-013
vernier = 0.00495321
Gmin = 6.02523e-013
vernier = 0.00660428
vernier = 0.00880571
Gmin = 5.91933e-013
vernier = 0.0117409
vernier = 0.00587047
vernier = 0.00293523
Gmin = 5.86318e-013
vernier = 0.00391365
vernier = 0.00521819
Gmin = 5.80187e-013
vernier = 0.00695759
vernier = 0.00927678
Gmin = 5.70604e-013
vernier = 0.00463839
vernier = 0.0023192
vernier = 0.00309226
Gmin = 5.68952e-013
vernier = 0.00412301
vernier = 0.00549735
Gmin = 5.63362e-013
vernier = 0.0073298
Gmin = 5.54408e-013
vernier = 0.00977306
vernier = 0.00488653
vernier = 0.00244326
vernier = 0.00325769
Gmin = 5.51258e-013
vernier = 0.00434358
Gmin = 5.46048e-013
vernier = 0.00579144
vernier = 0.00772192
Gmin = 5.37621e-013
vernier = 0.0102959
vernier = 0.00514794
vernier = 0.00257397
Gmin = 5.33146e-013
vernier = 0.00343196
vernier = 0.00457595
Gmin = 5.28254e-013
vernier = 0.00610126
vernier = 0.00813501
Gmin = 5.20594e-013
vernier = 0.0108467
vernier = 0.00542334
vernier = 0.00271167
Gmin = 5.14634e-013
vernier = 0.00361556
vernier = 0.00482074
Gmin = 5.10197e-013
vernier = 0.00642766
Gmin = 5.03079e-013
vernier = 0.00857021
vernier = 0.0114269
vernier = 0.00571347
vernier = 0.00285674
Gmin = 4.95863e-013
vernier = 0.00380898
Gmin = 4.91751e-013
vernier = 0.00507864
vernier = 0.00677152
Gmin = 4.85089e-013
vernier = 0.00902868
vernier = 0.0120382
Gmin = 4.7472e-013
vernier = 0.00601912
vernier = 0.00300956
vernier = 0.00401275
Gmin = 4.72937e-013
vernier = 0.00535033
vernier = 0.00713377
Gmin = 4.66917e-013
vernier = 0.00951169
Gmin = 4.57312e-013
vernier = 0.0126822
vernier = 0.00634112
vernier = 0.00317056
vernier = 0.00422742
Gmin = 4.53944e-013
vernier = 0.00563655
Gmin = 4.48385e-013
vernier = 0.0075154
vernier = 0.0100205
Gmin = 4.39428e-013
vernier = 0.0133607
vernier = 0.00668035
vernier = 0.00334018
Gmin = 4.34689e-013
vernier = 0.00445357
vernier = 0.00593809
Gmin = 4.2952e-013
vernier = 0.00791745
vernier = 0.0105566
Gmin = 4.21457e-013
vernier = 0.0140755
vernier = 0.00703773
vernier = 0.00351886
Gmin = 4.15209e-013
vernier = 0.00469182
vernier = 0.00625576
Gmin = 4.1057e-013
vernier = 0.00834101
Gmin = 4.03154e-013
vernier = 0.0111213
vernier = 0.0148284
vernier = 0.00741422
vernier = 0.00370711
Gmin = 3.95668e-013
vernier = 0.00494281
Gmin = 3.91415e-013
vernier = 0.00659042
vernier = 0.00878722
Gmin = 3.8455e-013
vernier = 0.0117163
vernier = 0.0156217
Gmin = 3.73921e-013
vernier = 0.00781086
vernier = 0.00390543
vernier = 0.00520724
Gmin = 3.72099e-013
vernier = 0.00694298
vernier = 0.00925731
Gmin = 3.65966e-013
vernier = 0.0123431
vernier = 0.00617154
vernier = 0.00308577
Gmin = 3.61203e-013
vernier = 0.00411436
vernier = 0.00548581
Gmin = 3.57661e-013
vernier = 0.00731441
Gmin = 3.51989e-013
vernier = 0.00975254
vernier = 0.0130034
vernier = 0.00650169
vernier = 0.00325085
Gmin = 3.4625e-013
vernier = 0.00433446
Gmin = 3.42984e-013
vernier = 0.00577928
vernier = 0.00770571
Gmin = 3.37702e-013
vernier = 0.0102743
vernier = 0.013699
Gmin = 3.29501e-013
vernier = 0.00684951
vernier = 0.00342476
vernier = 0.00456634
Gmin = 3.28093e-013
vernier = 0.00608845
vernier = 0.00811794
Gmin = 3.23346e-013
vernier = 0.0108239
Gmin = 3.15789e-013
vernier = 0.0144319
vernier = 0.00721594
vernier = 0.00360797
vernier = 0.00481062
Gmin = 3.13143e-013
vernier = 0.00641416
Gmin = 3.08783e-013
vernier = 0.00855222
vernier = 0.011403
Gmin = 3.01775e-013
vernier = 0.0152039
vernier = 0.00760197
vernier = 0.00380098
Gmin = 2.98075e-013
vernier = 0.00506798
vernier = 0.0067573
Gmin = 2.94045e-013
vernier = 0.00900973
vernier = 0.012013
Gmin = 2.87773e-013
vernier = 0.0160173
vernier = 0.00800865
vernier = 0.00400432
Gmin = 2.82923e-013
vernier = 0.0053391
vernier = 0.00711879
Gmin = 2.7933e-013
vernier = 0.00949172
Gmin = 2.73596e-013
vernier = 0.0126556
vernier = 0.0168742
vernier = 0.00843708
vernier = 0.00421854
Gmin = 2.67824e-013
vernier = 0.00562472
Gmin = 2.64551e-013
vernier = 0.00749962
vernier = 0.0099995
Gmin = 2.59277e-013
vernier = 0.0133327
vernier = 0.0177769
Gmin = 2.51139e-013
vernier = 0.00888844
vernier = 0.00444422
vernier = 0.00592562
Gmin = 2.49747e-013
vernier = 0.00790083
vernier = 0.0105344
Gmin = 2.45069e-013
vernier = 0.0140459
Gmin = 2.37665e-013
vernier = 0.0187279
vernier = 0.00936394
vernier = 0.00468197
vernier = 0.00624262
Gmin = 2.35085e-013
vernier = 0.0083235
Gmin = 2.30847e-013
vernier = 0.011098
vernier = 0.0147973
Gmin = 2.24074e-013
vernier = 0.0197298
vernier = 0.00986488
vernier = 0.00493244
Gmin = 2.20516e-013
vernier = 0.00657658
vernier = 0.00876878
Gmin = 2.16656e-013
vernier = 0.0116917
vernier = 0.0155889
Gmin = 2.1068e-013
vernier = 0.0207852
vernier = 0.0103926
vernier = 0.00519631
Gmin = 2.06086e-013
vernier = 0.00692841
vernier = 0.00923788
Gmin = 2.02696e-013
vernier = 0.0123172
Gmin = 1.97315e-013
vernier = 0.0164229
vernier = 0.0218972
vernier = 0.0109486
vernier = 0.00547429
Gmin = 1.91933e-013
vernier = 0.00729906
Gmin = 1.88895e-013
vernier = 0.00973207
vernier = 0.0129761
Gmin = 1.84025e-013
vernier = 0.0173015
vernier = 0.0230686
Gmin = 1.76568e-013
vernier = 0.0115343
vernier = 0.00576715
vernier = 0.00768953
Gmin = 1.75299e-013
vernier = 0.0102527
vernier = 0.0136703
Gmin = 1.71051e-013
vernier = 0.018227
Gmin = 1.64378e-013
vernier = 0.0243027
vernier = 0.0121513
vernier = 0.00607567
vernier = 0.00810089
Gmin = 1.62067e-013
vernier = 0.0108012
Gmin = 1.58287e-013
vernier = 0.0144016
vernier = 0.0192021
Gmin = 1.5229e-013
vernier = 0.0256028
vernier = 0.0128014
vernier = 0.0064007
Gmin = 1.4916e-013
vernier = 0.00853426
vernier = 0.011379
Gmin = 1.45782e-013
vernier = 0.015172
vernier = 0.0202294
Gmin = 1.40588e-013
vernier = 0.0269725
vernier = 0.0134862
vernier = 0.00674312
Gmin = 1.36625e-013
vernier = 0.00899082
vernier = 0.0119878
Gmin = 1.33717e-013
vernier = 0.0159837
Gmin = 1.2913e-013
vernier = 0.0213116
vernier = 0.0284154
Gmin = 1.21963e-013
vernier = 0.0378872
vernier = 0.0189436
vernier = 0.0094718
Gmin = 1.18276e-013
vernier = 0.0126291
vernier = 0.0168387
Gmin = 1.14335e-013
vernier = 0.0224517
vernier = 0.0299355
Gmin = 1.08364e-013
vernier = 0.039914
vernier = 0.019957
vernier = 0.00997851
Gmin = 1.03879e-013
vernier = 0.0133047
vernier = 0.0177396
Gmin = 1.00626e-013
Terminal Gmin changed to 1e-014
vernier = 0.00886978
vernier = 0.0118264
Gmin = 9.87859e-014
vernier = 0.0157685
Gmin = 9.54423e-014
vernier = 0.0210246
vernier = 0.0280329
Gmin = 9.02138e-014
vernier = 0.0373771
vernier = 0.0498362
Gmin = 8.25202e-014
vernier = 0.0249181
vernier = 0.012459
vernier = 0.016612
Gmin = 8.12428e-014
vernier = 0.0221494
vernier = 0.0295325
Gmin = 7.70551e-014
vernier = 0.0393767
Gmin = 7.07223e-014
vernier = 0.0525022
vernier = 0.0262511
vernier = 0.0131256
vernier = 0.0175007
Gmin = 6.8595e-014
vernier = 0.0233343
Gmin = 6.51901e-014
vernier = 0.0311124
vernier = 0.0414832
Gmin = 5.99824e-014
vernier = 0.0553109
vernier = 0.0737479
Gmin = 5.2585e-014
vernier = 0.0368739
vernier = 0.018437
vernier = 0.0245826
Gmin = 5.1384e-014
vernier = 0.0327768
vernier = 0.0437024
Gmin = 4.75183e-014
vernier = 0.0582699
Gmin = 4.18659e-014
vernier = 0.0776931
vernier = 0.103591
vernier = 0.0517954
vernier = 0.0258977
Gmin = 3.67665e-014
vernier = 0.0345303
Gmin = 3.41015e-014
vernier = 0.0460403
vernier = 0.0613871
Gmin = 3.01562e-014
vernier = 0.0818495
vernier = 0.109133
Gmin = 2.48348e-014
vernier = 0.14551
Gmin = 1.8156e-014
vernier = 0.194013
vernier = 0.0970067
vernier = 0.0485033
vernier = 0.0646711
Gmin = 1.62317e-014
vernier = 0.0862281
Gmin = 1.34655e-014
vernier = 0.114971
vernier = 0.153294
Gmin = 0
Terminal Gmin changed to 1e-015
vernier = 0.0766472
vernier = 0.102196
Gmin = 8.69701e-015
vernier = 0.136262
vernier = 0.181682
Gmin = 6.30844e-015
vernier = 0.242243
Gmin = 3.76521e-015
vernier = 0.32299
vernier = 0.430654
Gmin = 1.6394e-015
vernier = 0.574205
Terminal Gmin changed to 1e-016
vernier = 0.287102
Gmin = 8.56829e-016
vernier = 0.382803
vernier = 0.510404
Gmin = 3.39019e-016
vernier = 0.680538
Gmin = 0
Gmin stepping succeeded in finding the operating point.

Direct Newton iteration failed to find .op point.  (Use ".option noopiter" to skip.)
Starting Gmin stepping
Gmin = 10
Gmin = 1.07374
Gmin = 0.115292
Gmin = 0.0123794
Gmin = 0.00132923
Gmin = 0.000142725
Gmin = 1.5325e-005
Gmin = 1.6455e-006
Gmin = 1.76685e-007
Gmin = 1.89714e-008
Gmin = 2.03704e-009
vernier = 0.5
vernier = 0.25
vernier = 0.333333
Gmin = 1.11092e-009
vernier = 0.444444
vernier = 0.222222
vernier = 0.111111
Gmin = 7.04811e-010
vernier = 0.148148
vernier = 0.197531
Gmin = 4.97366e-010
vernier = 0.263374
vernier = 0.131687
vernier = 0.0658435
Gmin = 3.7829e-010
vernier = 0.0877914
vernier = 0.117055
Gmin = 3.07223e-010
vernier = 0.156073
vernier = 0.0780367
vernier = 0.0390184
Gmin = 2.60849e-010
vernier = 0.0520245
vernier = 0.0693659
Gmin = 2.30464e-010
vernier = 0.0924879
Gmin = 1.88639e-010
vernier = 0.123317
vernier = 0.0616586
vernier = 0.0308293
vernier = 0.0411057
Gmin = 1.75627e-010
vernier = 0.0548076
Gmin = 1.55898e-010
vernier = 0.0730768
vernier = 0.0974357
vernier = 0.0487178
vernier = 0.0243589
Gmin = 1.3796e-010
vernier = 0.0324786
Gmin = 1.28531e-010
vernier = 0.0433047
vernier = 0.0577396
Gmin = 1.1449e-010
vernier = 0.0769862
vernier = 0.0384931
vernier = 0.0192465
Gmin = 1.07586e-010
vernier = 0.025662
vernier = 0.0342161
Gmin = 1.0044e-010
vernier = 0.0456214
vernier = 0.0608285
Gmin = 9.00959e-011
vernier = 0.0304143
vernier = 0.0152071
vernier = 0.0202762
Gmin = 8.83959e-011
vernier = 0.0270349
vernier = 0.0360465
Gmin = 8.28697e-011
vernier = 0.048062
vernier = 0.024031
vernier = 0.0120155
Gmin = 7.87608e-011
vernier = 0.0160207
vernier = 0.0213609
Gmin = 7.58007e-011
vernier = 0.0284812
Gmin = 7.12363e-011
vernier = 0.0379749
vernier = 0.0189874
vernier = 0.00949371
Gmin = 6.73089e-011
vernier = 0.0126583
Gmin = 6.54216e-011
vernier = 0.0168777
vernier = 0.0225036
Gmin = 6.2374e-011
vernier = 0.0300048
vernier = 0.0400064
vernier = 0.0200032
Gmin = 5.89735e-011
vernier = 0.0100016
vernier = 0.0133355
Gmin = 5.74715e-011
vernier = 0.0177806
vernier = 0.0237075
Gmin = 5.49378e-011
vernier = 0.03161
vernier = 0.015805
vernier = 0.00790249
Gmin = 5.33377e-011
vernier = 0.0105366
vernier = 0.0140489
Gmin = 5.19302e-011
vernier = 0.0187318
Gmin = 4.97915e-011
vernier = 0.0249757
vernier = 0.033301
vernier = 0.0166505
vernier = 0.00832524
Gmin = 4.78666e-011
vernier = 0.0111003
Gmin = 4.66873e-011
vernier = 0.0148004
vernier = 0.0197339
Gmin = 4.4774e-011
vernier = 0.0263119
vernier = 0.0131559
vernier = 0.00657796
Gmin = 4.39727e-011
vernier = 0.00877062
vernier = 0.0116942
Gmin = 4.28948e-011
vernier = 0.0155922
vernier = 0.0207896
Gmin = 4.12315e-011
vernier = 0.0277195
vernier = 0.0138597
vernier = 0.00692986
Gmin = 4.01761e-011
vernier = 0.00923982
vernier = 0.0123198
Gmin = 3.92447e-011
vernier = 0.0164263
Gmin = 3.78234e-011
vernier = 0.0219018
vernier = 0.0109509
vernier = 0.00547544
Gmin = 3.71575e-011
vernier = 0.00730059
vernier = 0.00973411
Gmin = 3.63976e-011
vernier = 0.0129788
vernier = 0.0173051
Gmin = 3.52185e-011
vernier = 0.0230734
vernier = 0.0115367
vernier = 0.00576836
Gmin = 3.44663e-011
vernier = 0.00769114
vernier = 0.0102549
Gmin = 3.37997e-011
vernier = 0.0136731
Gmin = 3.27773e-011
vernier = 0.0182308
vernier = 0.0243078
vernier = 0.0121539
vernier = 0.00607695
Gmin = 3.18467e-011
vernier = 0.00810259
Gmin = 3.12719e-011
vernier = 0.0108035
vernier = 0.0144046
Gmin = 3.03306e-011
vernier = 0.0192061
vernier = 0.00960307
vernier = 0.00480153
Gmin = 2.99332e-011
vernier = 0.00640204
vernier = 0.00853606
Gmin = 2.93957e-011
vernier = 0.0113814
vernier = 0.0151752
Gmin = 2.85587e-011
vernier = 0.0202336
vernier = 0.0101168
vernier = 0.0050584
Gmin = 2.8023e-011
vernier = 0.00674453
vernier = 0.00899271
Gmin = 2.75471e-011
vernier = 0.0119903
Gmin = 2.68149e-011
vernier = 0.015987
vernier = 0.021316
vernier = 0.010658
vernier = 0.00532901
Gmin = 2.61459e-011
vernier = 0.00710534
Gmin = 2.57316e-011
vernier = 0.00947379
vernier = 0.0126317
Gmin = 2.5051e-011
vernier = 0.0168423
vernier = 0.00842114
vernier = 0.00421057
Gmin = 2.47629e-011
vernier = 0.00561409
vernier = 0.00748545
Gmin = 2.43724e-011
vernier = 0.0099806
vernier = 0.0133075
Gmin = 2.37627e-011
vernier = 0.0177433
vernier = 0.00887164
vernier = 0.00443582
Gmin = 2.33713e-011
vernier = 0.00591443
vernier = 0.0078859
Gmin = 2.30229e-011
vernier = 0.0105145
Gmin = 2.24852e-011
vernier = 0.0140194
vernier = 0.00700968
vernier = 0.00350484
vernier = 0.00467312
Gmin = 2.22827e-011
vernier = 0.00623083
Gmin = 2.19813e-011
vernier = 0.00830777
vernier = 0.011077
Gmin = 2.14965e-011
vernier = 0.0147694
vernier = 0.00738468
vernier = 0.00369234
Gmin = 2.12404e-011
vernier = 0.00492312
vernier = 0.00656416
Gmin = 2.09614e-011
vernier = 0.00875221
vernier = 0.0116696
Gmin = 2.05269e-011
vernier = 0.0155595
vernier = 0.00777973
vernier = 0.00388987
Gmin = 2.01908e-011
vernier = 0.00518649
vernier = 0.00691532
Gmin = 1.99416e-011
vernier = 0.00922042
Gmin = 1.95438e-011
vernier = 0.0122939
vernier = 0.0163918
vernier = 0.00819592
vernier = 0.00409796
Gmin = 1.91431e-011
vernier = 0.00546395
Gmin = 1.89158e-011
vernier = 0.00728526
vernier = 0.00971368
Gmin = 1.85494e-011
vernier = 0.0129516
vernier = 0.00647579
vernier = 0.00323789
Gmin = 1.83554e-011
vernier = 0.00431719
vernier = 0.00575625
Gmin = 1.81438e-011
vernier = 0.007675
vernier = 0.0102333
Gmin = 1.78136e-011
vernier = 0.0136444
vernier = 0.00682222
vernier = 0.00341111
Gmin = 1.75575e-011
vernier = 0.00454814
vernier = 0.00606419
Gmin = 1.73673e-011
vernier = 0.00808559
Gmin = 1.70631e-011
vernier = 0.0107808
vernier = 0.0143744
vernier = 0.00718718
vernier = 0.00359359
Gmin = 1.67559e-011
vernier = 0.00479145
Gmin = 1.65813e-011
vernier = 0.0063886
vernier = 0.00851814
Gmin = 1.62993e-011
vernier = 0.0113575
vernier = 0.00567876
vernier = 0.00283938
Gmin = 1.61497e-011
vernier = 0.00378584
vernier = 0.00504778
Gmin = 1.59863e-011
vernier = 0.00673037
vernier = 0.00897383
Gmin = 1.57308e-011
vernier = 0.0119651
vernier = 0.00598255
vernier = 0.00299128
Gmin = 1.55323e-011
vernier = 0.00398837
vernier = 0.00531782
Gmin = 1.53846e-011
vernier = 0.00709043
Gmin = 1.5148e-011
vernier = 0.0094539
vernier = 0.0126052
vernier = 0.0063026
vernier = 0.0031513
Gmin = 1.49086e-011
vernier = 0.00420173
Gmin = 1.47722e-011
vernier = 0.00560231
vernier = 0.00746974
Gmin = 1.45516e-011
vernier = 0.00995965
vernier = 0.00497983
vernier = 0.00248991
Gmin = 1.44344e-011
vernier = 0.00331988
vernier = 0.00442651
Gmin = 1.43063e-011
vernier = 0.00590201
vernier = 0.00786935
Gmin = 1.41056e-011
vernier = 0.0104925
vernier = 0.00524623
vernier = 0.00262311
Gmin = 1.39493e-011
vernier = 0.00349749
vernier = 0.00466331
Gmin = 1.3833e-011
vernier = 0.00621775
Gmin = 1.36462e-011
vernier = 0.00829033
vernier = 0.0110538
vernier = 0.00552688
vernier = 0.00276344
Gmin = 1.34568e-011
vernier = 0.00368459
Gmin = 1.33489e-011
vernier = 0.00491278
vernier = 0.00655038
Gmin = 1.31739e-011
vernier = 0.00873383
vernier = 0.0116451
Gmin = 1.29014e-011
vernier = 0.00582255
vernier = 0.00291128
vernier = 0.0038817
Gmin = 1.28545e-011
vernier = 0.0051756
vernier = 0.0069008
Gmin = 1.26962e-011
vernier = 0.00920106
vernier = 0.00460053
vernier = 0.00230027
Gmin = 1.25728e-011
vernier = 0.00306702
vernier = 0.00408936
Gmin = 1.24808e-011
vernier = 0.00545248
Gmin = 1.23329e-011
vernier = 0.00726997
vernier = 0.00969329
vernier = 0.00484665
vernier = 0.00242332
Gmin = 1.21826e-011
vernier = 0.0032311
Gmin = 1.20969e-011
vernier = 0.00430813
vernier = 0.00574417
Gmin = 1.19577e-011
vernier = 0.00765889
vernier = 0.0102118
Gmin = 1.17405e-011
vernier = 0.00510592
vernier = 0.00255296
vernier = 0.00340395
Gmin = 1.17031e-011
vernier = 0.0045386
vernier = 0.00605146
Gmin = 1.15766e-011
vernier = 0.00806861
Gmin = 1.13742e-011
vernier = 0.0107581
vernier = 0.00537907
vernier = 0.00268954
vernier = 0.00358605
Gmin = 1.13031e-011
vernier = 0.0047814
Gmin = 1.11855e-011
vernier = 0.00637519
vernier = 0.00850026
vernier = 0.00425013
vernier = 0.00212506
Gmin = 1.10659e-011
vernier = 0.00283342
Gmin = 1.09976e-011
vernier = 0.00377789
vernier = 0.00503719
Gmin = 1.08866e-011
vernier = 0.00671625
vernier = 0.00895499
Gmin = 1.07129e-011
vernier = 0.0044775
vernier = 0.00223875
vernier = 0.002985
Gmin = 1.0683e-011
vernier = 0.00397999
vernier = 0.00530666
Gmin = 1.05816e-011
vernier = 0.00707554
Gmin = 1.04193e-011
vernier = 0.00943405
vernier = 0.00471703
vernier = 0.00235851
vernier = 0.00314468
Gmin = 1.03621e-011
vernier = 0.00419291
Gmin = 1.02675e-011
vernier = 0.00559055
vernier = 0.00745406
Gmin = 1.01145e-011
vernier = 0.00993874
vernier = 0.00496937
vernier = 0.00248469
Gmin = 1.00333e-011
vernier = 0.00331291
vernier = 0.00441722
Gmin = 9.94436e-012
vernier = 0.00588962
vernier = 0.00785283
Gmin = 9.80513e-012
vernier = 0.00392641
vernier = 0.00196321
vernier = 0.00261761
Gmin = 9.78109e-012
vernier = 0.00349014
vernier = 0.00465352
Gmin = 9.69967e-012
vernier = 0.0062047
Gmin = 9.569e-012
vernier = 0.00827293
vernier = 0.00413646
vernier = 0.00206823
vernier = 0.00275764
Gmin = 9.52295e-012
vernier = 0.00367685
Gmin = 9.4467e-012
vernier = 0.00490247
vernier = 0.00653663
Gmin = 9.32313e-012
vernier = 0.0087155
vernier = 0.00435775
vernier = 0.00217887
Gmin = 9.25739e-012
vernier = 0.00290517
vernier = 0.00387355
Gmin = 9.18542e-012
vernier = 0.00516474
vernier = 0.00688631
Gmin = 9.07253e-012
vernier = 0.00918175
vernier = 0.00459087
vernier = 0.00229544
Gmin = 8.98453e-012
vernier = 0.00306058
vernier = 0.00408078
Gmin = 8.91891e-012
vernier = 0.00544103
Gmin = 8.81345e-012
vernier = 0.00725471
vernier = 0.00362735
vernier = 0.00181368
vernier = 0.00241824
Gmin = 8.77624e-012
vernier = 0.00322431
Gmin = 8.71458e-012
vernier = 0.00429908
vernier = 0.00573211
Gmin = 8.61454e-012
vernier = 0.00764281
vernier = 0.00382141
vernier = 0.0019107
Gmin = 8.56124e-012
vernier = 0.0025476
vernier = 0.0033968
Gmin = 8.50284e-012
vernier = 0.00452907
vernier = 0.00603876
Gmin = 8.41113e-012
vernier = 0.00805168
vernier = 0.00402584
vernier = 0.00201292
Gmin = 8.33953e-012
vernier = 0.00268389
vernier = 0.00357852
Gmin = 8.28609e-012
vernier = 0.00477136
Gmin = 8.2001e-012
vernier = 0.00636181
vernier = 0.00848241
vernier = 0.00424121
vernier = 0.0021206
Gmin = 8.11261e-012
vernier = 0.00282747
Gmin = 8.0626e-012
vernier = 0.00376996
vernier = 0.00502661
Gmin = 7.98137e-012
vernier = 0.00670215
vernier = 0.00335107
vernier = 0.00167554
Gmin = 7.93805e-012
vernier = 0.00223405
vernier = 0.00297873
Gmin = 7.89054e-012
vernier = 0.00397164
vernier = 0.00529552
Gmin = 7.81585e-012
vernier = 0.00706069
vernier = 0.00353034
vernier = 0.00176517
Gmin = 7.75748e-012
vernier = 0.00235356
vernier = 0.00313808
Gmin = 7.71387e-012
vernier = 0.00418411
Gmin = 7.64362e-012
vernier = 0.00557881
vernier = 0.00743841
vernier = 0.00371921
vernier = 0.0018596
Gmin = 7.57205e-012
vernier = 0.00247947
Gmin = 7.5311e-012
vernier = 0.00330596
vernier = 0.00440794
Gmin = 7.46451e-012
vernier = 0.00587726
vernier = 0.00783634
Gmin = 7.36022e-012
vernier = 0.00391817
vernier = 0.00195909
vernier = 0.00261211
Gmin = 7.34221e-012
vernier = 0.00348282
vernier = 0.00464375
Gmin = 7.28123e-012
vernier = 0.00619167
Gmin = 7.18334e-012
vernier = 0.00309584
vernier = 0.00154792
vernier = 0.00206389
Gmin = 7.16207e-012
vernier = 0.00275185
Gmin = 7.11787e-012
vernier = 0.00366914
vernier = 0.00489218
Gmin = 7.0443e-012
vernier = 0.0065229
vernier = 0.00326145
vernier = 0.00163073
Gmin = 7.01279e-012
vernier = 0.0021743
vernier = 0.00289907
Gmin = 6.96973e-012
vernier = 0.00386542
vernier = 0.0051539
Gmin = 6.90163e-012
vernier = 0.00687186
vernier = 0.00343593
vernier = 0.00171796
Gmin = 6.85733e-012
vernier = 0.00229062
vernier = 0.00305416
Gmin = 6.81754e-012
vernier = 0.00407221
Gmin = 6.75539e-012
vernier = 0.00542961
vernier = 0.00723948
vernier = 0.00361974
vernier = 0.00180987
Gmin = 6.6976e-012
vernier = 0.00241316
Gmin = 6.66134e-012
vernier = 0.00321754
vernier = 0.00429006
Gmin = 6.60092e-012
vernier = 0.00572008
vernier = 0.00762677
vernier = 0.00381338
Gmin = 6.53055e-012
vernier = 0.00190669
vernier = 0.00254226
Gmin = 6.49847e-012
vernier = 0.00338967
vernier = 0.00451956
Gmin = 6.44275e-012
vernier = 0.00602608
vernier = 0.00301304
vernier = 0.00150652
Gmin = 6.40647e-012
vernier = 0.00200869
vernier = 0.00267826
Gmin = 6.37385e-012
vernier = 0.00357101
Gmin = 6.32287e-012
vernier = 0.00476134
vernier = 0.00634846
vernier = 0.00317423
vernier = 0.00158711
Gmin = 6.27541e-012
vernier = 0.00211615
Gmin = 6.24561e-012
vernier = 0.00282153
vernier = 0.00376205
Gmin = 6.1959e-012
vernier = 0.00501606
vernier = 0.00668808
vernier = 0.00334404
Gmin = 6.13793e-012
vernier = 0.00167202
vernier = 0.00222936
Gmin = 6.11148e-012
vernier = 0.00297248
vernier = 0.0039633
Gmin = 6.0655e-012
vernier = 0.0052844
Gmin = 5.99385e-012
vernier = 0.00704587
vernier = 0.00352293
vernier = 0.00176147
vernier = 0.00234862
Gmin = 5.97366e-012
vernier = 0.0031315
Gmin = 5.93173e-012
vernier = 0.00417533
vernier = 0.0055671
vernier = 0.00278355
Gmin = 5.87834e-012
vernier = 0.00139177
vernier = 0.0018557
Gmin = 5.85725e-012
vernier = 0.00247427
vernier = 0.00329902
Gmin = 5.82054e-012
vernier = 0.00439869
Gmin = 5.76325e-012
vernier = 0.00586492
vernier = 0.00293246
vernier = 0.00146623
vernier = 0.00195497
Gmin = 5.74708e-012
vernier = 0.00260663
Gmin = 5.71348e-012
vernier = 0.00347551
vernier = 0.00463401
Gmin = 5.65752e-012
vernier = 0.00617867
vernier = 0.00308934
vernier = 0.00154467
Gmin = 5.63355e-012
vernier = 0.00205956
vernier = 0.00274608
Gmin = 5.60078e-012
vernier = 0.00366143
vernier = 0.00488191
Gmin = 5.54893e-012
vernier = 0.00650921
vernier = 0.00325461
vernier = 0.0016273
Gmin = 5.51518e-012
vernier = 0.00216974
vernier = 0.00289298
Gmin = 5.48486e-012
vernier = 0.00385731
Gmin = 5.43749e-012
vernier = 0.00514308
vernier = 0.00685743
vernier = 0.00342872
vernier = 0.00171436
Gmin = 5.39341e-012
vernier = 0.00228581
Gmin = 5.36575e-012
vernier = 0.00304775
vernier = 0.00406366
Gmin = 5.31964e-012
vernier = 0.00541821
vernier = 0.00270911
vernier = 0.00135455
Gmin = 5.29987e-012
vernier = 0.00180607
vernier = 0.00240809
Gmin = 5.27282e-012
vernier = 0.00321079
vernier = 0.00428105
Gmin = 5.22999e-012
vernier = 0.00570807
vernier = 0.00285403
vernier = 0.00142702
Gmin = 5.20209e-012
vernier = 0.00190269
vernier = 0.00253692
Gmin = 5.177e-012
vernier = 0.00338256
Gmin = 5.13776e-012
vernier = 0.00451008
vernier = 0.00601343
vernier = 0.00300672
vernier = 0.00150336
Gmin = 5.10122e-012
vernier = 0.00200448
Gmin = 5.07827e-012
vernier = 0.00267264
vernier = 0.00356351
Gmin = 5.03998e-012
vernier = 0.00475135
vernier = 0.00633513
vernier = 0.00316757
Gmin = 4.9953e-012
vernier = 0.00158378
vernier = 0.00211171
Gmin = 4.97491e-012
vernier = 0.00281561
vernier = 0.00375415
Gmin = 4.93945e-012
vernier = 0.00500553
Gmin = 4.88416e-012
vernier = 0.00667404
vernier = 0.00333702
vernier = 0.00166851
vernier = 0.00222468
Gmin = 4.86857e-012
vernier = 0.00296624
Gmin = 4.8362e-012
vernier = 0.00395498
vernier = 0.00527331
vernier = 0.00263665
vernier = 0.00131833
Gmin = 4.80602e-012
vernier = 0.00175777
Gmin = 4.78705e-012
vernier = 0.00234369
vernier = 0.00312492
Gmin = 4.75538e-012
vernier = 0.00416656
vernier = 0.00555541
vernier = 0.00277771
Gmin = 4.71839e-012
vernier = 0.00138885
vernier = 0.0018518
Gmin = 4.7015e-012
vernier = 0.00246907
vernier = 0.00329209
Gmin = 4.6721e-012
vernier = 0.00438946
Gmin = 4.6262e-012
vernier = 0.00585261
vernier = 0.0029263
vernier = 0.00146315
vernier = 0.00195087
Gmin = 4.61325e-012
vernier = 0.00260116
Gmin = 4.58634e-012
vernier = 0.00346821
vernier = 0.00462428
Gmin = 4.54151e-012
vernier = 0.0061657
vernier = 0.00308285
vernier = 0.00154143
Gmin = 4.52231e-012
vernier = 0.00205523
vernier = 0.00274031
Gmin = 4.49606e-012
vernier = 0.00365375
vernier = 0.00487166
Gmin = 4.45452e-012
vernier = 0.00649555
vernier = 0.00324777
vernier = 0.00162389
Gmin = 4.42749e-012
vernier = 0.00216518
vernier = 0.00288691
Gmin = 4.4032e-012
vernier = 0.00384921
Gmin = 4.36525e-012
vernier = 0.00513228
vernier = 0.00256614
vernier = 0.00128307
vernier = 0.00171076
Gmin = 4.35453e-012
vernier = 0.00228101
Gmin = 4.33224e-012
vernier = 0.00304135
vernier = 0.00405513
Gmin = 4.29509e-012
vernier = 0.00540684
vernier = 0.00270342
vernier = 0.00135171
Gmin = 4.27916e-012
vernier = 0.00180228
vernier = 0.00240304
Gmin = 4.25737e-012
vernier = 0.00320405
vernier = 0.00427207
Gmin = 4.22285e-012
vernier = 0.00569609
vernier = 0.00284804
vernier = 0.00142402
Gmin = 4.20037e-012
vernier = 0.0018987
vernier = 0.00253159
Gmin = 4.18015e-012
vernier = 0.00337546
Gmin = 4.14854e-012
vernier = 0.00450061
vernier = 0.00600081
vernier = 0.0030004
vernier = 0.0015002
Gmin = 4.1191e-012
vernier = 0.00200027
Gmin = 4.10061e-012
vernier = 0.00266702
vernier = 0.00355603
Gmin = 4.06975e-012
vernier = 0.00474137
vernier = 0.00632183
vernier = 0.00316092
Gmin = 4.03375e-012
vernier = 0.00158046
vernier = 0.00210728
Gmin = 4.01732e-012
vernier = 0.0028097
vernier = 0.00374627
Gmin = 3.98874e-012
vernier = 0.00499502
vernier = 0.00249751
vernier = 0.00124876
Gmin = 3.97011e-012
vernier = 0.00166501
vernier = 0.00222001
Gmin = 3.95335e-012
vernier = 0.00296001
Gmin = 3.92712e-012
vernier = 0.00394668
vernier = 0.00526224
vernier = 0.00263112
vernier = 0.00131556
Gmin = 3.90267e-012
vernier = 0.00175408
Gmin = 3.8873e-012
vernier = 0.00233877
vernier = 0.00311836
Gmin = 3.86163e-012
vernier = 0.00415781
vernier = 0.00554375
vernier = 0.00277188
Gmin = 3.83166e-012
vernier = 0.00138594
vernier = 0.00184792
Gmin = 3.81797e-012
vernier = 0.00246389
vernier = 0.00328518
Gmin = 3.79414e-012
vernier = 0.00438024
Gmin = 3.75695e-012
vernier = 0.00584032
vernier = 0.00292016
vernier = 0.00146008
vernier = 0.00194677
Gmin = 3.74645e-012
vernier = 0.0025957
Gmin = 3.72464e-012
vernier = 0.00346093
vernier = 0.00461457
Gmin = 3.68831e-012
vernier = 0.00615276
vernier = 0.00307638
vernier = 0.00153819
Gmin = 3.67275e-012
vernier = 0.00205092
vernier = 0.00273456
Gmin = 3.65148e-012
vernier = 0.00364608
vernier = 0.00486144
vernier = 0.00243072
Gmin = 3.62661e-012
vernier = 0.00121536
vernier = 0.00162048
Gmin = 3.61524e-012
vernier = 0.00216064
vernier = 0.00288085
Gmin = 3.59545e-012
vernier = 0.00384113
Gmin = 3.56452e-012
vernier = 0.00512151
vernier = 0.00256075
vernier = 0.00128038
vernier = 0.00170717
Gmin = 3.55579e-012
vernier = 0.00227622
Gmin = 3.53763e-012
vernier = 0.00303496
vernier = 0.00404662
Gmin = 3.50735e-012
vernier = 0.00539549
vernier = 0.00269774
vernier = 0.00134887
Gmin = 3.49437e-012
vernier = 0.0017985
vernier = 0.00239799
Gmin = 3.47661e-012
vernier = 0.00319732
vernier = 0.0042631
Gmin = 3.44849e-012
vernier = 0.00568413
vernier = 0.00284207
vernier = 0.00142103
Gmin = 3.43017e-012
vernier = 0.00189471
vernier = 0.00252628
Gmin = 3.41369e-012
vernier = 0.00336837
Gmin = 3.38793e-012
vernier = 0.00449116
vernier = 0.00598821
vernier = 0.00299411
vernier = 0.00149705
Gmin = 3.36394e-012
vernier = 0.00199607
Gmin = 3.34887e-012
vernier = 0.00266143
vernier = 0.00354857
Gmin = 3.32372e-012
vernier = 0.00473142
vernier = 0.00236571
vernier = 0.00118286
Gmin = 3.31293e-012
vernier = 0.00157714
vernier = 0.00210285
Gmin = 3.29816e-012
vernier = 0.0028038
vernier = 0.0037384
Gmin = 3.27475e-012
vernier = 0.00498454
vernier = 0.00249227
vernier = 0.00124613
Gmin = 3.25949e-012
vernier = 0.00166151
vernier = 0.00221535
Gmin = 3.24575e-012
vernier = 0.0029538
Gmin = 3.22426e-012
vernier = 0.0039384
vernier = 0.00525119
vernier = 0.0026256
vernier = 0.0013128
Gmin = 3.20423e-012
vernier = 0.0017504
Gmin = 3.19163e-012
vernier = 0.00233386
vernier = 0.00311182
Gmin = 3.17061e-012
vernier = 0.00414909
vernier = 0.00553211
vernier = 0.00276606
Gmin = 3.14605e-012
vernier = 0.00138303
vernier = 0.00184404
Gmin = 3.13483e-012
vernier = 0.00245872
vernier = 0.00327829
Gmin = 3.11531e-012
vernier = 0.00437105
Gmin = 3.08483e-012
vernier = 0.00582806
vernier = 0.00291403
vernier = 0.00145702
vernier = 0.00194269
Gmin = 3.07623e-012
vernier = 0.00259025
Gmin = 3.05836e-012
vernier = 0.00345366
vernier = 0.00460489
vernier = 0.00230244
vernier = 0.00115122
Gmin = 3.04169e-012
vernier = 0.00153496
Gmin = 3.03121e-012
vernier = 0.00204661
vernier = 0.00272882
Gmin = 3.01368e-012
vernier = 0.00363842
vernier = 0.00485123
vernier = 0.00242562
Gmin = 2.9932e-012
vernier = 0.00121281
vernier = 0.00161708
Gmin = 2.98384e-012
vernier = 0.0021561
vernier = 0.0028748
Gmin = 2.96754e-012
vernier = 0.00383307
Gmin = 2.94207e-012
vernier = 0.00511076
vernier = 0.00255538
vernier = 0.00127769
vernier = 0.00170358
Gmin = 2.93487e-012
vernier = 0.00227145
Gmin = 2.91992e-012
vernier = 0.00302859
vernier = 0.00403812
Gmin = 2.89498e-012
vernier = 0.00538416
vernier = 0.00269208
vernier = 0.00134604
Gmin = 2.88429e-012
vernier = 0.00179472
vernier = 0.00239296
Gmin = 2.86966e-012
vernier = 0.00319061
vernier = 0.00425415
Gmin = 2.84649e-012
vernier = 0.0056722
vernier = 0.0028361
vernier = 0.00141805
Gmin = 2.8314e-012
vernier = 0.00189073
vernier = 0.00252098
Gmin = 2.81783e-012
vernier = 0.0033613
Gmin = 2.79661e-012
vernier = 0.00448173
vernier = 0.00224087
vernier = 0.00112043
vernier = 0.00149391
Gmin = 2.79061e-012
vernier = 0.00199188
Gmin = 2.77813e-012
vernier = 0.00265584
vernier = 0.00354112
Gmin = 2.75732e-012
vernier = 0.00472149
vernier = 0.00236074
vernier = 0.00118037
Gmin = 2.74838e-012
vernier = 0.00157383
vernier = 0.00209844
Gmin = 2.73616e-012
vernier = 0.00279792
vernier = 0.00373056
Gmin = 2.71678e-012
vernier = 0.00497407
vernier = 0.00248704
vernier = 0.00124352
Gmin = 2.70414e-012
vernier = 0.00165802
vernier = 0.0022107
Gmin = 2.69277e-012
vernier = 0.0029476
Gmin = 2.67498e-012
vernier = 0.00393013
vernier = 0.00524017
vernier = 0.00262008
vernier = 0.00131004
Gmin = 2.65839e-012
vernier = 0.00174672
Gmin = 2.64797e-012
vernier = 0.00232896
vernier = 0.00310528
Gmin = 2.63056e-012
vernier = 0.00414038
vernier = 0.0055205
vernier = 0.00276025
Gmin = 2.61023e-012
vernier = 0.00138013
vernier = 0.00184017
Gmin = 2.60094e-012
vernier = 0.00245355
vernier = 0.00327141
Gmin = 2.58477e-012
vernier = 0.00436187
vernier = 0.00218094
vernier = 0.00109047
Gmin = 2.57423e-012
vernier = 0.00145396
vernier = 0.00193861
Gmin = 2.56474e-012
vernier = 0.00258481
Gmin = 2.54987e-012
vernier = 0.00344641
vernier = 0.00459522
vernier = 0.00229761
vernier = 0.0011488
Gmin = 2.536e-012
vernier = 0.00153174
Gmin = 2.52727e-012
vernier = 0.00204232
vernier = 0.00272309
Gmin = 2.51269e-012
vernier = 0.00363079
vernier = 0.00484105
vernier = 0.00242052
Gmin = 2.49565e-012
vernier = 0.00121026
vernier = 0.00161368
Gmin = 2.48787e-012
vernier = 0.00215158
vernier = 0.00286877
Gmin = 2.4743e-012
vernier = 0.00382502
Gmin = 2.45311e-012
vernier = 0.00510003
vernier = 0.00255001
vernier = 0.00127501
vernier = 0.00170001
Gmin = 2.44712e-012
vernier = 0.00226668
Gmin = 2.43468e-012
vernier = 0.00302224
vernier = 0.00402965
Gmin = 2.41393e-012
vernier = 0.00537286
vernier = 0.00268643
vernier = 0.00134322
Gmin = 2.40503e-012
vernier = 0.00179095
vernier = 0.00238794
Gmin = 2.39286e-012
vernier = 0.00318392
vernier = 0.00424522
Gmin = 2.37358e-012
vernier = 0.00212261
vernier = 0.00283015
Gmin = 2.36228e-012
vernier = 0.00377353
vernier = 0.00503137
Gmin = 2.34102e-012
vernier = 0.00251568
vernier = 0.00125784
vernier = 0.00167712
Gmin = 2.33735e-012
vernier = 0.00223616
vernier = 0.00298155
Gmin = 2.32486e-012
vernier = 0.0039754
Gmin = 2.30474e-012
vernier = 0.00530053
vernier = 0.00265026
vernier = 0.00132513
vernier = 0.00176684
Gmin = 2.29763e-012
vernier = 0.00235579
Gmin = 2.28582e-012
vernier = 0.00314105
vernier = 0.00418807
Gmin = 2.26661e-012
vernier = 0.00558409
vernier = 0.00279204
vernier = 0.00139602
Gmin = 2.25636e-012
vernier = 0.00186136
vernier = 0.00248182
Gmin = 2.2451e-012
vernier = 0.00330909
vernier = 0.00441212
Gmin = 2.22738e-012
vernier = 0.00220606
vernier = 0.00110303
vernier = 0.0014707
Gmin = 2.22431e-012
vernier = 0.00196094
vernier = 0.00261458
Gmin = 2.21389e-012
vernier = 0.00348611
Gmin = 2.19707e-012
vernier = 0.00464815
vernier = 0.00232407
vernier = 0.00116204
vernier = 0.00154938
Gmin = 2.19113e-012
vernier = 0.00206584
Gmin = 2.18125e-012
vernier = 0.00275446
vernier = 0.00367261
Gmin = 2.16517e-012
vernier = 0.00489681
vernier = 0.0024484
vernier = 0.0012242
Gmin = 2.15657e-012
vernier = 0.00163227
vernier = 0.00217636
Gmin = 2.14714e-012
vernier = 0.00290181
vernier = 0.00386908
Gmin = 2.13227e-012
vernier = 0.00515877
vernier = 0.00257939
vernier = 0.00128969
Gmin = 2.12062e-012
vernier = 0.00171959
vernier = 0.00229279
Gmin = 2.1119e-012
vernier = 0.00305705
Gmin = 2.09783e-012
vernier = 0.00407606
vernier = 0.00543475
vernier = 0.00271737
vernier = 0.00135869
Gmin = 2.08346e-012
vernier = 0.00181158
Gmin = 2.07522e-012
vernier = 0.00241544
vernier = 0.00322059
Gmin = 2.06179e-012
vernier = 0.00429412
vernier = 0.00214706
vernier = 0.00107353
Gmin = 2.05462e-012
vernier = 0.00143137
vernier = 0.0019085
Gmin = 2.04673e-012
vernier = 0.00254466
vernier = 0.00339288
Gmin = 2.03429e-012
vernier = 0.00452384
vernier = 0.00226192
vernier = 0.00113096
Gmin = 2.02454e-012
vernier = 0.00150795
vernier = 0.00201059
Gmin = 2.01724e-012
vernier = 0.00268079
Gmin = 2.00545e-012
vernier = 0.00357439
vernier = 0.00476585
vernier = 0.00238292
vernier = 0.00119146
Gmin = 1.9934e-012
vernier = 0.00158862
Gmin = 1.98648e-012
vernier = 0.00211815
vernier = 0.0028242
Gmin = 1.97521e-012
vernier = 0.00376561
vernier = 0.00502081
Gmin = 1.95748e-012
vernier = 0.0025104
vernier = 0.0012552
vernier = 0.0016736
Gmin = 1.95441e-012
vernier = 0.00223147
vernier = 0.00297529
Gmin = 1.94399e-012
vernier = 0.00396705
Gmin = 1.9272e-012
vernier = 0.0052894
vernier = 0.0026447
vernier = 0.00132235
vernier = 0.00176313
Gmin = 1.92127e-012
vernier = 0.00235084
Gmin = 1.91141e-012
vernier = 0.00313446
vernier = 0.00417928
Gmin = 1.89539e-012
vernier = 0.00557237
vernier = 0.00278618
vernier = 0.00139309
Gmin = 1.88683e-012
vernier = 0.00185746
vernier = 0.00247661
Gmin = 1.87743e-012
vernier = 0.00330214
vernier = 0.00440285
Gmin = 1.86265e-012
vernier = 0.00220143
vernier = 0.00110071
vernier = 0.00146762
Gmin = 1.86008e-012
vernier = 0.00195682
vernier = 0.0026091
Gmin = 1.85139e-012
vernier = 0.00347879
Gmin = 1.83736e-012
vernier = 0.00463839
vernier = 0.0023192
vernier = 0.0011596
vernier = 0.00154613
Gmin = 1.83239e-012
vernier = 0.00206151
Gmin = 1.82415e-012
vernier = 0.00274867
vernier = 0.0036649
Gmin = 1.81073e-012
vernier = 0.00488653
vernier = 0.00244326
vernier = 0.00122163
Gmin = 1.80356e-012
vernier = 0.00162884
vernier = 0.00217179
Gmin = 1.79568e-012
vernier = 0.00289572
vernier = 0.00386096
Gmin = 1.78327e-012
vernier = 0.00514794
vernier = 0.00257397
vernier = 0.00128699
Gmin = 1.77355e-012
vernier = 0.00171598
vernier = 0.00228797
Gmin = 1.76627e-012
vernier = 0.00305063
Gmin = 1.75453e-012
vernier = 0.00406751
vernier = 0.00542334
vernier = 0.00271167
vernier = 0.00135583
Gmin = 1.74253e-012
vernier = 0.00180778
Gmin = 1.73566e-012
vernier = 0.00241037
vernier = 0.00321383
Gmin = 1.72445e-012
vernier = 0.0042851
vernier = 0.00214255
vernier = 0.00107128
Gmin = 1.71846e-012
vernier = 0.00142837
vernier = 0.00190449
Gmin = 1.71188e-012
vernier = 0.00253932
vernier = 0.00338576
Gmin = 1.7015e-012
vernier = 0.00451434
vernier = 0.00225717
vernier = 0.00112859
Gmin = 1.69336e-012
vernier = 0.00150478
vernier = 0.00200637
Gmin = 1.68727e-012
vernier = 0.00267516
Gmin = 1.67743e-012
vernier = 0.00356688
vernier = 0.00475584
vernier = 0.00237792
vernier = 0.00118896
Gmin = 1.66737e-012
vernier = 0.00158528
Gmin = 1.66159e-012
vernier = 0.00211371
vernier = 0.00281828
Gmin = 1.65219e-012
vernier = 0.0037577
vernier = 0.00501027
Gmin = 1.63738e-012
vernier = 0.00250513
vernier = 0.00125257
vernier = 0.00167009
Gmin = 1.63482e-012
vernier = 0.00222678
vernier = 0.00296904
Gmin = 1.62613e-012
vernier = 0.00395872
Gmin = 1.61211e-012
vernier = 0.0052783
vernier = 0.00263915
vernier = 0.00131957
vernier = 0.00175943
Gmin = 1.60716e-012
vernier = 0.00234591
Gmin = 1.59893e-012
vernier = 0.00312788
vernier = 0.0041705
Gmin = 1.58555e-012
vernier = 0.00556067
vernier = 0.00278033
vernier = 0.00139017
Gmin = 1.57841e-012
vernier = 0.00185356
vernier = 0.00247141
Gmin = 1.57057e-012
vernier = 0.00329521
vernier = 0.00439361
Gmin = 1.55822e-012
vernier = 0.00219681
vernier = 0.0010984
vernier = 0.00146454
Gmin = 1.55608e-012
[...]
vernier = 0.00116669
Gmin = 8.355e-013
vernier = 0.00155558
Gmin = 8.32662e-013
vernier = 0.00207411
vernier = 0.00276548
Gmin = 8.28035e-013
vernier = 0.0036873
vernier = 0.0049164
Gmin = 8.20755e-013
vernier = 0.0024582
vernier = 0.0012291
vernier = 0.0016388
Gmin = 8.19495e-013
vernier = 0.00218507
vernier = 0.00291342
Gmin = 8.15217e-013
vernier = 0.00388456
vernier = 0.00194228
vernier = 0.00097114
Gmin = 8.11861e-013
vernier = 0.00129485
vernier = 0.00172647
Gmin = 8.09346e-013
vernier = 0.00230196
Gmin = 8.05282e-013
vernier = 0.00306928
vernier = 0.00409237
vernier = 0.00204619
vernier = 0.00102309
Gmin = 8.01124e-013
vernier = 0.00136412
Gmin = 7.98737e-013
vernier = 0.00181883
vernier = 0.00242511
Gmin = 7.94843e-013
vernier = 0.00323347
vernier = 0.0043113
Gmin = 7.88712e-013
vernier = 0.00215565
vernier = 0.00107782
vernier = 0.0014371
Gmin = 7.8765e-013
vernier = 0.00191613
vernier = 0.00255484
Gmin = 7.84043e-013
vernier = 0.00340645
Gmin = 7.78225e-013
vernier = 0.00454194
vernier = 0.00227097
vernier = 0.00113548
vernier = 0.00151398
Gmin = 7.76166e-013
vernier = 0.00201864
Gmin = 7.72747e-013
vernier = 0.00269152
vernier = 0.00358869
Gmin = 7.67179e-013
vernier = 0.00478492
vernier = 0.00239246
vernier = 0.00119623
Gmin = 7.64204e-013
vernier = 0.00159497
vernier = 0.00212663
Gmin = 7.60936e-013
vernier = 0.0028355
vernier = 0.00378067
Gmin = 7.55786e-013
vernier = 0.00504089
vernier = 0.00252045
vernier = 0.00126022
Gmin = 7.5175e-013
vernier = 0.0016803
vernier = 0.0022404
Gmin = 7.48731e-013
vernier = 0.00298719
Gmin = 7.43856e-013
vernier = 0.00398292
vernier = 0.00531056
vernier = 0.00265528
vernier = 0.00132764
Gmin = 7.38875e-013
vernier = 0.00177019
Gmin = 7.3602e-013
vernier = 0.00236025
vernier = 0.003147
Gmin = 7.31368e-013
vernier = 0.004196
vernier = 0.002098
vernier = 0.001049
Gmin = 7.28879e-013
vernier = 0.00139867
vernier = 0.00186489
Gmin = 7.26145e-013
vernier = 0.00248651
vernier = 0.00331535
Gmin = 7.21834e-013
vernier = 0.00442047
vernier = 0.00221023
vernier = 0.00110512
Gmin = 7.18453e-013
vernier = 0.00147349
vernier = 0.00196465
Gmin = 7.15921e-013
vernier = 0.00261953
Gmin = 7.11832e-013
vernier = 0.00349271
vernier = 0.00465695
vernier = 0.00232847
vernier = 0.00116424
Gmin = 7.0765e-013
vernier = 0.00155232
Gmin = 7.05252e-013
vernier = 0.00206975
vernier = 0.00275967
Gmin = 7.01341e-013
vernier = 0.00367956
vernier = 0.00490608
Gmin = 6.95188e-013
vernier = 0.00245304
vernier = 0.00122652
vernier = 0.00163536
Gmin = 6.94123e-013
vernier = 0.00218048
vernier = 0.0029073
Gmin = 6.90507e-013
vernier = 0.0038764
Gmin = 6.84679e-013
vernier = 0.00516854
vernier = 0.00258427
vernier = 0.00129213
vernier = 0.00172285
Gmin = 6.82619e-013
vernier = 0.00229713
Gmin = 6.79198e-013
vernier = 0.00306284
vernier = 0.00408378
Gmin = 6.73632e-013
vernier = 0.00544504
vernier = 0.00272252
vernier = 0.00136126
Gmin = 6.7066e-013
vernier = 0.00181501
vernier = 0.00242002
Gmin = 6.67397e-013
vernier = 0.00322669
vernier = 0.00430225
Gmin = 6.6226e-013
vernier = 0.00215112
vernier = 0.00107556
vernier = 0.00143408
Gmin = 6.6137e-013
vernier = 0.00191211
vernier = 0.00254948
Gmin = 6.58348e-013
vernier = 0.0033993
Gmin = 6.53472e-013
vernier = 0.0045324
vernier = 0.0022662
vernier = 0.0011331
vernier = 0.0015108
Gmin = 6.51747e-013
vernier = 0.0020144
Gmin = 6.48882e-013
vernier = 0.00268587
vernier = 0.00358115
Gmin = 6.44217e-013
vernier = 0.00477487
vernier = 0.00238744
vernier = 0.00119372
Gmin = 6.41724e-013
vernier = 0.00159162
vernier = 0.00212216
Gmin = 6.38985e-013
vernier = 0.00282955
vernier = 0.00377273
Gmin = 6.3467e-013
vernier = 0.00503031
vernier = 0.00251516
vernier = 0.00125758
Gmin = 6.31288e-013
vernier = 0.00167677
vernier = 0.00223569
Gmin = 6.28758e-013
vernier = 0.00298092
Gmin = 6.24672e-013
vernier = 0.00397456
vernier = 0.00529942
vernier = 0.00264971
vernier = 0.00132485
Gmin = 6.20499e-013
vernier = 0.00176647
Gmin = 6.18106e-013
vernier = 0.00235529
vernier = 0.00314039
Gmin = 6.14207e-013
vernier = 0.00418719
vernier = 0.00558292
Gmin = 6.08079e-013
vernier = 0.00279146
vernier = 0.00139573
vernier = 0.00186097
Gmin = 6.07019e-013
vernier = 0.0024813
vernier = 0.00330839
Gmin = 6.03422e-013
vernier = 0.00441119
Gmin = 5.97631e-013
vernier = 0.00588158
vernier = 0.00294079
vernier = 0.0014704
vernier = 0.00196053
Gmin = 5.95584e-013
vernier = 0.00261404
Gmin = 5.92189e-013
vernier = 0.00348538
vernier = 0.00464717
vernier = 0.00232359
vernier = 0.00116179
Gmin = 5.88718e-013
vernier = 0.00154906
Gmin = 5.86727e-013
vernier = 0.00206541
vernier = 0.00275388
Gmin = 5.8348e-013
vernier = 0.00367184
vernier = 0.00489578
Gmin = 5.78372e-013
vernier = 0.00244789
vernier = 0.00122395
vernier = 0.00163193
Gmin = 5.77487e-013
vernier = 0.0021759
vernier = 0.0029012
Gmin = 5.74486e-013
vernier = 0.00386827
Gmin = 5.69647e-013
vernier = 0.00515769
vernier = 0.00257884
vernier = 0.00128942
vernier = 0.00171923
Gmin = 5.67936e-013
vernier = 0.00229231
Gmin = 5.65096e-013
vernier = 0.00305641
vernier = 0.00407521
Gmin = 5.60475e-013
vernier = 0.00543361
vernier = 0.0027168
vernier = 0.0013584
Gmin = 5.58007e-013
vernier = 0.0018112
vernier = 0.00241494
Gmin = 5.55299e-013
vernier = 0.00321991
vernier = 0.00429322
Gmin = 5.51033e-013
vernier = 0.00572429
vernier = 0.00286214
vernier = 0.00143107
Gmin = 5.47693e-013
vernier = 0.0019081
vernier = 0.00254413
Gmin = 5.45196e-013
vernier = 0.00339217
Gmin = 5.41167e-013
vernier = 0.00452289
vernier = 0.00603052
vernier = 0.00301526
vernier = 0.00150763
Gmin = 5.37054e-013
vernier = 0.00201017
Gmin = 5.34699e-013
vernier = 0.00268023
vernier = 0.00357364
Gmin = 5.30862e-013
vernier = 0.00476485
vernier = 0.00238242
vernier = 0.00119121
Gmin = 5.2834e-013
vernier = 0.00158828
vernier = 0.00211771
Gmin = 5.26212e-013
vernier = 0.00282361
Gmin = 5.2288e-013
vernier = 0.00376481
vernier = 0.00501975
vernier = 0.00250988
vernier = 0.00125494
Gmin = 5.19774e-013
vernier = 0.00167325
Gmin = 5.17821e-013
vernier = 0.002231
vernier = 0.00297467
Gmin = 5.1456e-013
vernier = 0.00396622
vernier = 0.00528829
vernier = 0.00264415
Gmin = 5.10749e-013
vernier = 0.00132207
vernier = 0.00176276
Gmin = 5.09008e-013
vernier = 0.00235035
vernier = 0.0031338
Gmin = 5.05977e-013
vernier = 0.0041784
Gmin = 5.01245e-013
vernier = 0.0055712
vernier = 0.0027856
vernier = 0.0013928
vernier = 0.00185707
Gmin = 4.99909e-013
vernier = 0.00247609
Gmin = 4.97132e-013
vernier = 0.00330145
vernier = 0.00440193
Gmin = 4.92506e-013
vernier = 0.00586924
vernier = 0.00293462
vernier = 0.00146731
Gmin = 4.90523e-013
vernier = 0.00195641
vernier = 0.00260855
Gmin = 4.87813e-013
vernier = 0.00347806
vernier = 0.00463742
Gmin = 4.83521e-013
vernier = 0.00618322
vernier = 0.00309161
vernier = 0.00154581
Gmin = 4.80728e-013
vernier = 0.00206107
vernier = 0.0027481
Gmin = 4.78217e-013
vernier = 0.00366413
Gmin = 4.74292e-013
vernier = 0.0048855
vernier = 0.006514
vernier = 0.003257
vernier = 0.0016285
Gmin = 4.7064e-013
vernier = 0.00217133
Gmin = 4.68346e-013
vernier = 0.00289511
vernier = 0.00386015
Gmin = 4.64522e-013
vernier = 0.00514686
vernier = 0.00686248
vernier = 0.00343124
Gmin = 4.60063e-013
vernier = 0.00171562
vernier = 0.00228749
Gmin = 4.58029e-013
vernier = 0.00304999
vernier = 0.00406665
Gmin = 4.54494e-013
vernier = 0.0054222
vernier = 0.0027111
vernier = 0.00135555
Gmin = 4.5219e-013
vernier = 0.0018074
vernier = 0.00240987
Gmin = 4.50118e-013
vernier = 0.00321315
Gmin = 4.46877e-013
vernier = 0.0042842
vernier = 0.00571227
vernier = 0.00285614
vernier = 0.00142807
Gmin = 4.43858e-013
vernier = 0.00190409
Gmin = 4.41961e-013
vernier = 0.00253879
vernier = 0.00338505
Gmin = 4.38794e-013
vernier = 0.00451339
vernier = 0.00601786
vernier = 0.00300893
Gmin = 4.35098e-013
vernier = 0.00150446
vernier = 0.00200595
Gmin = 4.33411e-013
vernier = 0.0026746
vernier = 0.00356614
Gmin = 4.30476e-013
vernier = 0.00475485
Gmin = 4.25897e-013
vernier = 0.00633979
vernier = 0.0031699
vernier = 0.00158495
vernier = 0.00211326
Gmin = 4.24606e-013
vernier = 0.00281768
Gmin = 4.21923e-013
vernier = 0.00375691
vernier = 0.00500921
Gmin = 4.17458e-013
vernier = 0.00667895
vernier = 0.00333948
vernier = 0.00166974
Gmin = 4.15547e-013
vernier = 0.00222632
vernier = 0.00296842
Gmin = 4.12934e-013
vernier = 0.00395789
vernier = 0.00527719
Gmin = 4.08803e-013
vernier = 0.00703625
vernier = 0.00351813
vernier = 0.00175906
Gmin = 4.06117e-013
vernier = 0.00234542
vernier = 0.00312722
Gmin = 4.03704e-013
vernier = 0.00416963
Gmin = 3.99936e-013
vernier = 0.0055595
vernier = 0.00741267
vernier = 0.00370633
vernier = 0.00185317
Gmin = 3.96434e-013
vernier = 0.00247089
Gmin = 3.94236e-013
vernier = 0.00329452
vernier = 0.00439269
Gmin = 3.90575e-013
vernier = 0.00585692
vernier = 0.00292846
vernier = 0.00146423
Gmin = 3.89006e-013
vernier = 0.00195231
vernier = 0.00260307
Gmin = 3.86861e-013
vernier = 0.00347076
vernier = 0.00462768
Gmin = 3.83465e-013
vernier = 0.00617024
vernier = 0.00308512
vernier = 0.00154256
Gmin = 3.81254e-013
vernier = 0.00205675
vernier = 0.00274233
Gmin = 3.79267e-013
vernier = 0.00365644
Gmin = 3.76161e-013
vernier = 0.00487525
vernier = 0.00650033
vernier = 0.00325016
vernier = 0.00162508
Gmin = 3.7327e-013
vernier = 0.00216678
Gmin = 3.71455e-013
vernier = 0.00288903
vernier = 0.00385204
Gmin = 3.68428e-013
vernier = 0.00513606
vernier = 0.00684808
vernier = 0.00342404
Gmin = 3.64899e-013
vernier = 0.00171202
vernier = 0.00228269
Gmin = 3.63289e-013
vernier = 0.00304359
vernier = 0.00405812
Gmin = 3.60491e-013
vernier = 0.00541082
Gmin = 3.56132e-013
vernier = 0.00721442
vernier = 0.00360721
vernier = 0.00180361
vernier = 0.00240481
Gmin = 3.54903e-013
vernier = 0.00320641
Gmin = 3.52353e-013
vernier = 0.00427521
vernier = 0.00570028
Gmin = 3.48113e-013
vernier = 0.00760037
vernier = 0.00380019
vernier = 0.00190009
Gmin = 3.463e-013
vernier = 0.00253346
vernier = 0.00337794
Gmin = 3.43824e-013
vernier = 0.00450392
vernier = 0.00600523
Gmin = 3.39912e-013
vernier = 0.00800697
vernier = 0.00400348
vernier = 0.00200174
Gmin = 3.37372e-013
vernier = 0.00266899
vernier = 0.00355865
Gmin = 3.35092e-013
vernier = 0.00474487
Gmin = 3.31536e-013
vernier = 0.00632649
vernier = 0.00843531
vernier = 0.00421766
vernier = 0.00210883
Gmin = 3.28234e-013
vernier = 0.00281177
Gmin = 3.26164e-013
vernier = 0.00374903
vernier = 0.0049987
Gmin = 3.2272e-013
vernier = 0.00666493
vernier = 0.00333247
vernier = 0.00166623
Gmin = 3.21245e-013
vernier = 0.00222164
vernier = 0.00296219
Gmin = 3.1923e-013
vernier = 0.00394959
vernier = 0.00526611
Gmin = 3.16043e-013
vernier = 0.00702148
vernier = 0.00351074
vernier = 0.00175537
Gmin = 3.13971e-013
vernier = 0.00234049
vernier = 0.00312066
Gmin = 3.12109e-013
vernier = 0.00416088
Gmin = 3.09202e-013
vernier = 0.00554783
vernier = 0.00739711
vernier = 0.00369855
vernier = 0.00184928
Gmin = 3.065e-013
vernier = 0.0024657
Gmin = 3.04805e-013
vernier = 0.0032876
vernier = 0.00438347
Gmin = 3.0198e-013
vernier = 0.00584462
vernier = 0.00779283
vernier = 0.00389641
Gmin = 2.98691e-013
vernier = 0.00194821
vernier = 0.00259761
Gmin = 2.97192e-013
vernier = 0.00346348
vernier = 0.00461797
Gmin = 2.94588e-013
vernier = 0.00615729
Gmin = 2.90538e-013
vernier = 0.00820972
vernier = 0.00410486
vernier = 0.00205243
vernier = 0.00273657
Gmin = 2.89398e-013
vernier = 0.00364876
Gmin = 2.87033e-013
vernier = 0.00486501
vernier = 0.00648668
Gmin = 2.83106e-013
vernier = 0.00864891
vernier = 0.00432446
vernier = 0.00216223
Gmin = 2.81429e-013
vernier = 0.00288297
vernier = 0.00384396
Gmin = 2.7914e-013
vernier = 0.00512528
vernier = 0.0068337
Gmin = 2.7553e-013
vernier = 0.0091116
vernier = 0.0045558
vernier = 0.0022779
Gmin = 2.73188e-013
vernier = 0.0030372
vernier = 0.0040496
Gmin = 2.71088e-013
vernier = 0.00539946
Gmin = 2.67816e-013
vernier = 0.00719928
vernier = 0.00959904
vernier = 0.00479952
vernier = 0.00239976
Gmin = 2.64784e-013
vernier = 0.00319968
Gmin = 2.62885e-013
vernier = 0.00426624
vernier = 0.00568831
Gmin = 2.59728e-013
vernier = 0.00758442
vernier = 0.0101126
vernier = 0.00505628
Gmin = 2.56064e-013
vernier = 0.00252814
vernier = 0.00337085
Gmin = 2.54398e-013
vernier = 0.00449447
vernier = 0.00599262
Gmin = 2.5151e-013
vernier = 0.00799016
Gmin = 2.47033e-013
vernier = 0.0106535
vernier = 0.00532677
vernier = 0.00266339
vernier = 0.00355118
Gmin = 2.45775e-013
vernier = 0.0047349
Gmin = 2.43172e-013
vernier = 0.0063132
vernier = 0.0084176
vernier = 0.0042088
vernier = 0.0021044
Gmin = 2.40756e-013
vernier = 0.00280587
Gmin = 2.39241e-013
vernier = 0.00374116
vernier = 0.00498821
Gmin = 2.3672e-013
vernier = 0.00665094
vernier = 0.00886792
vernier = 0.00443396
Gmin = 2.33788e-013
vernier = 0.00221698
vernier = 0.00295597
Gmin = 2.32454e-013
vernier = 0.00394129
vernier = 0.00525506
Gmin = 2.30138e-013
vernier = 0.00700674
Gmin = 2.26541e-013
vernier = 0.00934232
vernier = 0.00467116
vernier = 0.00233558
vernier = 0.00311411
Gmin = 2.2553e-013
vernier = 0.00415214
Gmin = 2.23433e-013
vernier = 0.00553619
vernier = 0.00738158
Gmin = 2.19959e-013
vernier = 0.0098421
vernier = 0.00492105
vernier = 0.00246053
Gmin = 2.18476e-013
vernier = 0.0032807
vernier = 0.00437427
Gmin = 2.16456e-013
vernier = 0.00583235
vernier = 0.00777647
Gmin = 2.13273e-013
vernier = 0.0103686
vernier = 0.00518431
vernier = 0.00259216
Gmin = 2.11212e-013
vernier = 0.00345621
vernier = 0.00460827
Gmin = 2.09365e-013
vernier = 0.00614436
Gmin = 2.06493e-013
vernier = 0.00819248
vernier = 0.0109233
vernier = 0.00546165
vernier = 0.00273083
Gmin = 2.03834e-013
vernier = 0.0036411
Gmin = 2.02172e-013
vernier = 0.0048548
vernier = 0.00647307
Gmin = 1.99412e-013
vernier = 0.00863075
vernier = 0.0115077
vernier = 0.00575383
Gmin = 1.96214e-013
vernier = 0.00287692
vernier = 0.00383589
Gmin = 1.94762e-013
vernier = 0.00511452
vernier = 0.00681935
Gmin = 1.92248e-013
vernier = 0.00909247
Gmin = 1.88359e-013
vernier = 0.0121233
vernier = 0.00606165
vernier = 0.00303082
vernier = 0.0040411
Gmin = 1.87269e-013
vernier = 0.00538813
Gmin = 1.85013e-013
vernier = 0.00718417
vernier = 0.00957889
Gmin = 1.81289e-013
vernier = 0.0127718
vernier = 0.00638592
vernier = 0.00319296
Gmin = 1.79706e-013
vernier = 0.00425728
vernier = 0.00567637
Gmin = 1.77552e-013
vernier = 0.0075685
vernier = 0.0100913
Gmin = 1.74173e-013
vernier = 0.0134551
vernier = 0.00672755
vernier = 0.00336377
Gmin = 1.71992e-013
vernier = 0.00448503
vernier = 0.00598004
Gmin = 1.70044e-013
vernier = 0.00797339
Gmin = 1.67023e-013
vernier = 0.0106312
vernier = 0.0141749
vernier = 0.00708745
vernier = 0.00354372
Gmin = 1.64239e-013
vernier = 0.00472497
Gmin = 1.62503e-013
vernier = 0.00629995
vernier = 0.00839993
Gmin = 1.5963e-013
vernier = 0.0111999
vernier = 0.0149332
vernier = 0.0074666
Gmin = 1.56318e-013
vernier = 0.0037333
vernier = 0.00497774
Gmin = 1.54818e-013
vernier = 0.00663698
vernier = 0.0088493
Gmin = 1.52231e-013
vernier = 0.0117991
Gmin = 1.48248e-013
vernier = 0.0157321
vernier = 0.00786604
vernier = 0.00393302
vernier = 0.00524403
Gmin = 1.47135e-013
vernier = 0.00699203
Gmin = 1.4484e-013
vernier = 0.00932271
vernier = 0.0124303
Gmin = 1.41069e-013
vernier = 0.0165737
vernier = 0.00828685
vernier = 0.00414342
Gmin = 1.39473e-013
vernier = 0.00552456
vernier = 0.00736608
Gmin = 1.37308e-013
vernier = 0.00982144
vernier = 0.0130953
Gmin = 1.33927e-013
vernier = 0.0174603
vernier = 0.00873017
vernier = 0.00436508
Gmin = 1.31756e-013
vernier = 0.00582011
vernier = 0.00776015
Gmin = 1.29823e-013
vernier = 0.0103469
Gmin = 1.26839e-013
vernier = 0.0137958
vernier = 0.0183944
vernier = 0.0091972
vernier = 0.0045986
Gmin = 1.24103e-013
vernier = 0.00613147
Gmin = 1.22404e-013
vernier = 0.00817529
vernier = 0.0109004
Gmin = 1.19604e-013
vernier = 0.0145338
vernier = 0.0193784
vernier = 0.00968922
Gmin = 1.16394e-013
vernier = 0.00484461
vernier = 0.00645948
Gmin = 1.14948e-013
vernier = 0.00861264
vernier = 0.0114835
Gmin = 1.12462e-013
vernier = 0.0153113
Gmin = 1.0866e-013
vernier = 0.0204151
vernier = 0.0102076
vernier = 0.00510378
vernier = 0.00680504
Gmin = 1.07603e-013
vernier = 0.00907338
Gmin = 1.05431e-013
vernier = 0.0120978
vernier = 0.0161305
Gmin = 1.01884e-013
vernier = 0.0215073
vernier = 0.0107536
vernier = 0.00537682
Gmin = 1.00391e-013
vernier = 0.00716909
Terminal Gmin changed to 1e-014
vernier = 0.00358454
Gmin = 9.95849e-014
vernier = 0.00477939
vernier = 0.00637252
Gmin = 9.82463e-014
vernier = 0.00849669
vernier = 0.0113289
Gmin = 9.61497e-014
vernier = 0.0151052
Gmin = 9.29422e-014
vernier = 0.0201403
vernier = 0.0100701
vernier = 0.00503507
vernier = 0.00671343
Gmin = 9.20502e-014
vernier = 0.00895123
Gmin = 9.02167e-014
vernier = 0.011935
vernier = 0.0159133
Gmin = 8.72221e-014
vernier = 0.0212177
vernier = 0.0106089
vernier = 0.00530443
Gmin = 8.59607e-014
vernier = 0.00707257
vernier = 0.00943009
Gmin = 8.4257e-014
vernier = 0.0125735
vernier = 0.0167646
Gmin = 8.16112e-014
vernier = 0.0223528
vernier = 0.0111764
vernier = 0.0055882
Gmin = 7.99218e-014
vernier = 0.00745093
vernier = 0.00993457
Gmin = 7.8424e-014
vernier = 0.0132461
Gmin = 7.61246e-014
vernier = 0.0176615
vernier = 0.0235486
vernier = 0.0117743
vernier = 0.00588715
Gmin = 7.40297e-014
vernier = 0.00784953
Gmin = 7.27349e-014
vernier = 0.010466
vernier = 0.0139547
Gmin = 7.06129e-014
vernier = 0.0186063
vernier = 0.0248084
Gmin = 6.7359e-014
vernier = 0.0330778
vernier = 0.0165389
vernier = 0.00826945
Gmin = 6.53076e-014
vernier = 0.0110259
vernier = 0.0147012
Gmin = 6.35054e-014
vernier = 0.0196017
Gmin = 6.07715e-014
vernier = 0.0261355
vernier = 0.0348474
vernier = 0.0174237
vernier = 0.00871184
Gmin = 5.83156e-014
vernier = 0.0116158
Gmin = 5.68132e-014
vernier = 0.0154877
vernier = 0.0206503
Gmin = 5.43793e-014
vernier = 0.0275337
vernier = 0.0367116
vernier = 0.0183558
Gmin = 5.16519e-014
vernier = 0.0091779
vernier = 0.0122372
Gmin = 5.04432e-014
vernier = 0.0163163
vernier = 0.021755
Gmin = 4.83984e-014
vernier = 0.0290067
Gmin = 4.53503e-014
vernier = 0.0386755
vernier = 0.0193378
vernier = 0.00966888
vernier = 0.0128918
Gmin = 4.45188e-014
vernier = 0.0171891
Gmin = 4.28331e-014
vernier = 0.0229188
vernier = 0.0305584
Gmin = 4.01487e-014
vernier = 0.0407445
vernier = 0.054326
vernier = 0.027163
Gmin = 3.72094e-014
vernier = 0.0135815
vernier = 0.0181087
Gmin = 3.5929e-014
vernier = 0.0241449
vernier = 0.0321932
Gmin = 3.37969e-014
vernier = 0.0429242
Gmin = 3.07e-014
vernier = 0.0572323
vernier = 0.0286161
vernier = 0.0143081
vernier = 0.0190774
Gmin = 2.98711e-014
vernier = 0.0254366
Gmin = 2.82142e-014
vernier = 0.0339154
vernier = 0.0452205
Gmin = 2.56412e-014
vernier = 0.060294
vernier = 0.080392
vernier = 0.040196
Gmin = 2.29187e-014
vernier = 0.020098
vernier = 0.0267973
Gmin = 2.17624e-014
vernier = 0.0357298
vernier = 0.0476397
Gmin = 1.98816e-014
vernier = 0.0635196
Gmin = 1.72516e-014
vernier = 0.0846927
vernier = 0.112924
vernier = 0.0564618
vernier = 0.0282309
Gmin = 1.5107e-014
vernier = 0.0376412
Gmin = 1.38853e-014
vernier = 0.0501882
vernier = 0.0669176
Gmin = 1.20571e-014
vernier = 0.0892235
vernier = 0.118965
Terminal Gmin changed to 1e-015
Gmin = 1.02175e-014
vernier = 0.0594823
vernier = 0.0793097
Gmin = 8.77377e-015
vernier = 0.105746
vernier = 0.140995
Gmin = 6.73055e-015
vernier = 0.187993
Gmin = 4.44832e-015
vernier = 0.250658
vernier = 0.33421
Gmin = 2.24088e-015
vernier = 0.445613
vernier = 0.594151
Terminal Gmin changed to 1e-016
Gmin = 1.01272e-015
vernier = 0.297076
vernier = 0.396101
Gmin = 4.85169e-016
vernier = 0.528134
vernier = 0.704179
Gmin = 1.37999e-016
Gmin = 0
Gmin stepping succeeded in finding the operating point.


Date: Mon Feb 05 22:08:48 2018
Total elapsed time: 96.118 seconds.

tnom = 27
temp = 27
method = trap
totiter = 1459575
traniter = 0
tranpoints = 0
accept = 0
rejected = 0
matrix size = 27
fillins = 10
solver = Normal
Matrix Compiler1: 2.51 KB object code size  1.0/0.7/[0.3]
Matrix Compiler2: 2.83 KB object code size  0.8/0.7/[0.3]


