Circuit: * C:\Program Files (x86)\LTC\LTspiceIV\Supersaw-with-cv.asc

Direct Newton iteration failed to find .op point.  (Use ".option noopiter" to skip.)
Starting Gmin stepping
Gmin = 10
Gmin = 1.07374
vernier = 0.5
vernier = 0.25
vernier = 0.125
vernier = 0.0625
Gmin = 1.08884
vernier = 0.03125
vernier = 0.015625
Gmin = 1.03922
vernier = 0.0078125
vernier = 0.00390625
Gmin = 1.02313
vernier = 0.00520833
vernier = 0.00260417
Gmin = 1.01616
vernier = 0.00347222
vernier = 0.00173611
vernier = 0.00231481
Gmin = 1.01205
vernier = 0.00115741
vernier = 0.00154321
vernier = 0.000771604
Gmin = 1.0104
vernier = 0.00102881
Gmin = 1.00812
vernier = 0.000514403
vernier = 0.00068587
Gmin = 1.00704
vernier = 0.000514403
vernier = 0.00068587
vernier = 0.000514402
Gmin = 1.00622
Gmin = 0
Gmin stepping failed

Starting source stepping with srcstepmethod=0
Source Step = 3.0303%
Source Step = 33.3333%
Source Step = 63.6364%
Source Step = 93.9394%
Source stepping succeeded in finding the operating point.


Date: Sun Aug 12 18:33:19 2018
Total elapsed time: 11.908 seconds.

tnom = 27
temp = 27
method = modified trap
totiter = 432164
traniter = 425376
tranpoints = 113943
accept = 81956
rejected = 31987
matrix size = 46
fillins = 65
solver = Normal
Thread vector: 47.1/23.0[4] 8.7/4.7[4] 5.4/2.8[4] 0.6/0.9[1]  2592/500
Matrix Compiler1: 6.17 KB object code size  2.6/1.3/[0.6]
Matrix Compiler2: 5.96 KB object code size  1.7/1.8/[0.7]


