Circuit: * C:\Program Files (x86)\LTC\LTspiceIV\Supersaw-with-cv-2.asc

Early termination of direct N-R iteration.
Direct Newton iteration failed to find .op point.  (Use ".option noopiter" to skip.)
Starting Gmin stepping
Gmin = 10
Gmin = 1.07374
vernier = 0.5
vernier = 0.25
vernier = 0.125
vernier = 0.0625
Gmin = 1.08884
vernier = 0.03125
vernier = 0.015625
Gmin = 1.03922
vernier = 0.0078125
vernier = 0.00390625
Gmin = 1.02313
vernier = 0.00520833
vernier = 0.00260417
Gmin = 1.01616
vernier = 0.00347222
vernier = 0.00173611
vernier = 0.00231481
Gmin = 1.01205
vernier = 0.00115741
vernier = 0.00154321
vernier = 0.000771604
Gmin = 1.0104
vernier = 0.00102881
Gmin = 1.00812
vernier = 0.000514403
vernier = 0.00068587
Gmin = 1.00704
vernier = 0.000514403
vernier = 0.00068587
vernier = 0.000514402
Gmin = 1.00622
Gmin = 0
Gmin stepping failed

Starting source stepping with srcstepmethod=0
Source Step = 3.0303%
Source Step = 33.3333%
Source Step = 44.697%
Source Step = 52.2727%
Source Step = 59.8485%
Source Step = 67.4242%
Source Step = 75%
vernier = 0.375
Source Step = 84.8485%
Source Step = 96.2121%
Source stepping succeeded in finding the operating point.


Date: Sun Aug 12 19:41:43 2018
Total elapsed time: 24.874 seconds.

tnom = 27
temp = 27
method = modified trap
totiter = 1327136
traniter = 1320030
tranpoints = 371663
accept = 261534
rejected = 110129
matrix size = 24
fillins = 50
solver = Normal
Thread vector: 28.8/17.9[2] 5.7/4.2[2] 3.1/2.6[2] 0.4/0.7[1]  2592/500
Matrix Compiler1: 4.15 KB object code size  1.6/0.8/[0.4]
Matrix Compiler2: 3.52 KB object code size  0.8/0.8/[0.6]


