Circuit: * C:\Program Files (x86)\LTC\LTspiceIV\Triangle oscillator.asc

Direct Newton iteration failed to find .op point.  (Use ".option noopiter" to skip.)
Starting Gmin stepping
Gmin = 10
Gmin = 1.07374
vernier = 0.5
vernier = 0.25
vernier = 0.125
vernier = 0.0625
Gmin = 1.08884
vernier = 0.03125
vernier = 0.015625
Gmin = 1.03922
vernier = 0.0078125
vernier = 0.00390625
Gmin = 1.02313
vernier = 0.00520833
vernier = 0.00260417
Gmin = 1.01616
vernier = 0.00347222
vernier = 0.00173611
vernier = 0.00231481
Gmin = 1.01205
vernier = 0.00115741
vernier = 0.00154321
vernier = 0.000771604
Gmin = 1.0104
vernier = 0.00102881
Gmin = 1.00812
vernier = 0.000514403
vernier = 0.00068587
Gmin = 1.00704
vernier = 0.000514403
vernier = 0.00068587
vernier = 0.000514402
Gmin = 1.00622
Gmin = 0
Gmin stepping failed

Starting source stepping with srcstepmethod=0
Source Step = 3.0303%
Source Step = 28.0303%
vernier = 0.0625
Source Step = 27.3674%
Source Step = 27.4858%
Source Step = 27.6042%
Source Step = 27.7225%
Source Step = 27.8409%
vernier = 0.00585938
Source Step = 28.0007%
Source Step = 28.1783%
Source Step = 28.3558%
Source Step = 28.5334%
Source Step = 28.7109%
vernier = 0.00878906
Source Step = 28.9418%
Source Step = 29.2081%
Source Step = 29.4744%
Source Step = 29.7408%
Source Step = 30.0071%
vernier = 0.0131836
Source Step = 30.34%
Source Step = 30.7395%
Source Step = 31.139%
Source Step = 31.5385%
Source Step = 31.938%
vernier = 0.0197754
Source Step = 32.4174%
Source Step = 33.0167%
Source Step = 33.6159%
Source Step = 34.2152%
Source Step = 34.8145%
vernier = 0.0296631
Source Step = 35.5036%
Source Step = 36.4025%
Source Step = 37.3014%
Source Step = 38.2002%
Source Step = 39.0991%
vernier = 0.0444946
Source Step = 40.0879%
Source Step = 41.4362%
Source Step = 42.7845%
Source Step = 44.1329%
Source Step = 45.4812%
vernier = 0.0667419
Source Step = 46.8969%
Source Step = 48.9194%
Source Step = 50.9419%
Source Step = 52.9644%
Source Step = 54.9868%
Source Step = 57.0093%
vernier = 0.100113
Source Step = 60.0431%
Source Step = 63.0768%
Source Step = 66.1105%
Source Step = 69.1442%
Source Step = 72.178%
vernier = 0.150169
Source Step = 76.5769%
Source Step = 81.1274%
Source Step = 85.678%
Source Step = 90.2286%
Source Step = 94.7792%
vernier = 0.225254
Source stepping succeeded in finding the operating point.


Date: Sat Sep 22 22:20:42 2018
Total elapsed time: 11.282 seconds.

tnom = 27
temp = 27
method = modified trap
totiter = 572859
traniter = 564286
tranpoints = 164201
accept = 115466
rejected = 48735
matrix size = 24
fillins = 64
solver = Normal
Thread vector: 28.5/19.9[2] 5.7/3.9[2] 3.1/2.5[2] 0.4/0.7[1]  2592/500
Matrix Compiler1: 4.85 KB object code size  1.7/1.1/[0.5]
Matrix Compiler2: 3.78 KB object code size  1.0/0.9/[0.6]


