Circuit: * C:\git\ltspice-projects\Juno filter - xm8 computer tunable - overdrive.asc

WARNING: Less than two connections to node NC_12.  This node is used by R:U24:2.
WARNING: Less than two connections to node LIN_FM.  This node is used by R46.
WARNING: Less than two connections to node NC_13.  This node is used by Q:U21:N11.
Direct Newton iteration failed to find .op point.  (Use ".option noopiter" to skip.)
Starting Gmin stepping
Gmin = 10
Gmin = 1.07374
Gmin = 0.115292
Gmin = 0.0123794
Gmin = 0.00132923
Gmin = 0.000142725
Gmin = 1.5325e-005
Gmin = 1.6455e-006
Gmin = 1.76685e-007
Gmin = 1.89714e-008
Gmin = 2.03704e-009
Gmin = 2.18725e-010
Gmin = 2.34854e-011
Gmin = 2.52173e-012
Gmin = 2.70769e-013
Gmin = 0
Gmin stepping succeeded in finding the operating point.

Ignoring empty pin current: Ix(u10:1)
Ignoring empty pin current: Ix(u10:2)
Ignoring empty pin current: Ix(u13:1)
Ignoring empty pin current: Ix(u13:2)
Ignoring empty pin current: Ix(u3:1)
Ignoring empty pin current: Ix(u3:2)
Ignoring empty pin current: Ix(u4:1)
Ignoring empty pin current: Ix(u4:2)
Ignoring empty pin current: Ix(u6:1)
Ignoring empty pin current: Ix(u6:2)
Ignoring empty pin current: Ix(u8:1)
Ignoring empty pin current: Ix(u8:2)
Ignoring empty pin current: Ix(u17:1)
Ignoring empty pin current: Ix(u17:2)
Ignoring empty pin current: Ix(u19:1)
Ignoring empty pin current: Ix(u19:2)
Ignoring empty pin current: Ix(u12:1)
Ignoring empty pin current: Ix(u12:2)
Ignoring empty pin current: Ix(u22:1)
Ignoring empty pin current: Ix(u22:2)
Ignoring empty pin current: Ix(u23:1)
Ignoring empty pin current: Ix(u23:2)
Ignoring empty pin current: Ix(u18:1)
Ignoring empty pin current: Ix(u18:2)
Ignoring empty pin current: Ix(u10:1)
Ignoring empty pin current: Ix(u10:2)
Ignoring empty pin current: Ix(u13:1)
Ignoring empty pin current: Ix(u13:2)
Ignoring empty pin current: Ix(u3:1)
Ignoring empty pin current: Ix(u3:2)
Ignoring empty pin current: Ix(u4:1)
Ignoring empty pin current: Ix(u4:2)
Ignoring empty pin current: Ix(u6:1)
Ignoring empty pin current: Ix(u6:2)
Ignoring empty pin current: Ix(u8:1)
Ignoring empty pin current: Ix(u8:2)
Ignoring empty pin current: Ix(u17:1)
Ignoring empty pin current: Ix(u17:2)
Ignoring empty pin current: Ix(u19:1)
Ignoring empty pin current: Ix(u19:2)
Ignoring empty pin current: Ix(u12:1)
Ignoring empty pin current: Ix(u12:2)
Ignoring empty pin current: Ix(u22:1)
Ignoring empty pin current: Ix(u22:2)
Ignoring empty pin current: Ix(u23:1)
Ignoring empty pin current: Ix(u23:2)
Ignoring empty pin current: Ix(u18:1)
Ignoring empty pin current: Ix(u18:2)
.step ampl=0
.step ampl=1
.step ampl=2
.step ampl=3
.step ampl=4
.step ampl=5

Date: Tue Apr 02 21:15:40 2019
Total elapsed time: 2.295 seconds.

tnom = 27
temp = 27
method = modified trap
totiter = 1107
traniter = 500
tranpoints = 235
accept = 172
rejected = 63
matrix size = 147
fillins = 197
solver = Normal
Thread vector: 95.3/38.9[8] 70.2/24.3[8] 41.6/15.9[8] 1.4/3.2[1]  2592/500
Matrix Compiler1: 18.58 KB object code size  10.8/6.4/[3.2]
Matrix Compiler2: 18.26 KB object code size  7.0/7.3/[2.1]


