Circuit: * C:\git\ltspice-projects\tested\Jupiter 6 filter - reso CV and vca cv using const current sources - overdrive - 10 modes.asc

WARNING: Less than two connections to node NC_11.  This node is used by R34.
WARNING: Less than two connections to node NC_12.  This node is used by R18.
WARNING: Less than two connections to node NC_14.  This node is used by Q:U7:N11.
WARNING: Less than two connections to node NC_17.  This node is used by Q:U15:N11.
WARNING: Less than two connections to node NC_19.  This node is used by R62.
WARNING: Less than two connections to node NC_20.  This node is used by R65.
WARNING: Less than two connections to node NC_21.  This node is used by R:U31:2.
WARNING: Less than two connections to node LIN_FM.  This node is used by R30.
WARNING: Less than two connections to node NC_22.  This node is used by R58.
WARNING: Less than two connections to node NC_23.  This node is used by Q:U22:N11.
WARNING: Less than two connections to node NC_25.  This node is used by R60.
WARNING: Less than two connections to node NC_26.  This node is used by R78.
WARNING: Less than two connections to node NC_27.  This node is used by R80.
WARNING: Less than two connections to node NC_28.  This node is used by R17.
Direct Newton iteration failed to find .op point.  (Use ".option noopiter" to skip.)
Starting Gmin stepping
Gmin = 10
Gmin = 1.07374
Gmin = 0.115292
Gmin = 0.0123794
Gmin = 0.00132923
Gmin = 0.000142725
Gmin = 1.5325e-005
Gmin = 1.6455e-006
Gmin = 1.76685e-007
Gmin = 1.89714e-008
Gmin = 2.03704e-009
Gmin = 2.18725e-010
Gmin = 2.34854e-011
Gmin = 2.52173e-012
Gmin = 2.70769e-013
Gmin = 0
Gmin stepping succeeded in finding the operating point.

Ignoring empty pin current: Ix(u16:1)
Ignoring empty pin current: Ix(u16:2)
Ignoring empty pin current: Ix(u17:1)
Ignoring empty pin current: Ix(u17:2)
Ignoring empty pin current: Ix(u3:1)
Ignoring empty pin current: Ix(u3:2)
Ignoring empty pin current: Ix(u4:1)
Ignoring empty pin current: Ix(u4:2)
Ignoring empty pin current: Ix(u6:1)
Ignoring empty pin current: Ix(u6:2)
Ignoring empty pin current: Ix(u8:1)
Ignoring empty pin current: Ix(u8:2)
Ignoring empty pin current: Ix(u12:1)
Ignoring empty pin current: Ix(u12:2)
Ignoring empty pin current: Ix(u13:1)
Ignoring empty pin current: Ix(u13:2)
Ignoring empty pin current: Ix(u14:1)
Ignoring empty pin current: Ix(u14:2)
Ignoring empty pin current: Ix(u21:1)
Ignoring empty pin current: Ix(u21:2)
Ignoring empty pin current: Ix(u27:1)
Ignoring empty pin current: Ix(u27:2)
Ignoring empty pin current: Ix(u29:1)
Ignoring empty pin current: Ix(u29:2)
Ignoring empty pin current: Ix(u32:1)
Ignoring empty pin current: Ix(u32:2)
Ignoring empty pin current: Ix(u20:1)
Ignoring empty pin current: Ix(u20:2)
Ignoring empty pin current: Ix(u23:1)
Ignoring empty pin current: Ix(u23:2)
Ignoring empty pin current: Ix(u24:1)
Ignoring empty pin current: Ix(u24:2)
Ignoring empty pin current: Ix(u26:1)
Ignoring empty pin current: Ix(u26:2)
Ignoring empty pin current: Ix(u33:1)
Ignoring empty pin current: Ix(u33:2)
Ignoring empty pin current: Ix(u16:1)
Ignoring empty pin current: Ix(u16:2)
Ignoring empty pin current: Ix(u17:1)
Ignoring empty pin current: Ix(u17:2)
Ignoring empty pin current: Ix(u3:1)
Ignoring empty pin current: Ix(u3:2)
Ignoring empty pin current: Ix(u4:1)
Ignoring empty pin current: Ix(u4:2)
Ignoring empty pin current: Ix(u6:1)
Ignoring empty pin current: Ix(u6:2)
Ignoring empty pin current: Ix(u8:1)
Ignoring empty pin current: Ix(u8:2)
Ignoring empty pin current: Ix(u12:1)
Ignoring empty pin current: Ix(u12:2)
Ignoring empty pin current: Ix(u13:1)
Ignoring empty pin current: Ix(u13:2)
Ignoring empty pin current: Ix(u14:1)
Ignoring empty pin current: Ix(u14:2)
Ignoring empty pin current: Ix(u21:1)
Ignoring empty pin current: Ix(u21:2)
Ignoring empty pin current: Ix(u27:1)
Ignoring empty pin current: Ix(u27:2)
Ignoring empty pin current: Ix(u29:1)
Ignoring empty pin current: Ix(u29:2)
Ignoring empty pin current: Ix(u32:1)
Ignoring empty pin current: Ix(u32:2)
Ignoring empty pin current: Ix(u20:1)
Ignoring empty pin current: Ix(u20:2)
Ignoring empty pin current: Ix(u23:1)
Ignoring empty pin current: Ix(u23:2)
Ignoring empty pin current: Ix(u24:1)
Ignoring empty pin current: Ix(u24:2)
Ignoring empty pin current: Ix(u26:1)
Ignoring empty pin current: Ix(u26:2)
Ignoring empty pin current: Ix(u33:1)
Ignoring empty pin current: Ix(u33:2)
.step ampl=1
.step ampl=2
.step ampl=3
.step ampl=4
.step ampl=5
.step ampl=6
.step ampl=7
.step ampl=8
.step ampl=9
.step ampl=10

Date: Tue Apr 02 21:04:52 2019
Total elapsed time: 9.981 seconds.

tnom = 27
temp = 27
method = modified trap
totiter = 7089
traniter = 6477
tranpoints = 2538
accept = 1843
rejected = 695
matrix size = 189
fillins = 278
solver = Normal
Thread vector: 107.1/46.5[8] 78.6/21.4[8] 45.7/15.7[8] 1.6/4.2[1]  2592/500
Matrix Compiler1: 24.81 KB object code size  12.6/7.7/[4.1]
Matrix Compiler2: 23.13 KB object code size  8.7/9.8/[2.9]


